# svn $Id: makefile 981 2019-08-08 19:59:02Z arango $
#::::::::::::::::::::::::::::::::::::::::::::::::::::: Hernan G. Arango :::
# Copyright (c) 2002-2020 The ROMS/TOMS Group             Kate Hedstrom :::
#   Licensed under a MIT/X style license                                :::
#   See License_ROMS.txt                                                :::
#::::::::::::::::::::::::::::::::::::::::::::::::::::::::::::::::::::::::::
#                                                                       :::
#  ROMS/TOMS Framework Master Makefile                                  :::
#                                                                       :::
#  This makefile is designed to work only with GNU Make version 3.80 or :::
#  higher. It can be used in any architecture provided that there is a  :::
#  machine/compiler rules file in the  "Compilers"  subdirectory.  You  :::
#  may need to modify the rules file to specify the  correct path  for  :::
#  the NetCDF and ARPACK libraries. The ARPACK library is only used in  :::
#  the Generalized Stability Theory analysis and Laczos algorithm.      :::
#                                                                       :::
#  If appropriate,  the USER needs to modify the  macro definitions in  :::
#  in user-defined section below.  To activate an option set the macro  :::
#  to "on". For example, if you want to compile with debugging options  :::
#  set:                                                                 :::
#                                                                       :::
#      USE_DEBUG := on                                                  :::
#                                                                       :::
#  Otherwise, leave macro definition blank.                             :::
#                                                                       :::
#  The USER needs to provide a value for the  macro FORT.  Choose  the  :::
#  appropriate value from the list below.                               :::
#                                                                       :::
#::::::::::::::::::::::::::::::::::::::::::::::::::::::::::::::::::::::::::

ifneq (3.80,$(firstword $(sort $(MAKE_VERSION) 3.80)))
 $(error This makefile requires GNU make version 3.80 or higher. \
		Your current version is: $(MAKE_VERSION))
endif

#--------------------------------------------------------------------------
#  Initialize some things.
#--------------------------------------------------------------------------

  sources    :=

#==========================================================================
#  Start of user-defined options. In some macro definitions below: "on" or
#  any other string means TRUE while blank (or spaces) is FALSE.
#==========================================================================
#
#  The CPP option defining a particular application is specified below.
#  See header file "ROMS/Include/cppdefs.h" for all available idealized
#  and realistic applications CPP flags. For example, to activate the
#  upwelling test case (UPWELLING) set:
#
#    ROMS_APPLICATION ?= UPWELLING
#
#  Notice that this makefile will include the associated application header
#  file, which is located either in the "ROMS/Include" or MY_HEADER_DIR
#  directory.  This makefile is designed to search in both directories.
#  The only constrain is that the application CPP option must be unique
#  and header file name is the lowercase value of ROMS_APPLICATION with
#  the .h extension. For example, the upwelling application includes the
#  "upwelling.h" header file.

ROMS_APPLICATION ?= UPWELLING

#  If application header files is not located in "ROMS/Include",
#  provide an alternate directory FULL PATH.

MY_HEADER_DIR ?=

#  If your application requires analytical expressions and they are
#  not located in "ROMS/Functionals", provide an alternate directory.
#  Notice that a set analytical expressions templates can be found in
#  "User/Functionals".
#
#  If applicable, also used this directory to place your customized
#  biology model header file (like fennel.h, nemuro.h, ecosim.h, etc).

MY_ANALYTICAL_DIR ?=

#  Sometimes it is desirable to activate one or more CPP options to
#  run different variants of the same application without modifying
#  its header file. If this is the case, specify such options here
#  using the -D syntax.  For example, to write time-averaged fields
#  set:
#
#    MY_CPP_FLAGS ?= -DAVERAGES
#

MY_CPP_FLAGS ?=

#  Activate debugging compiler options:

   USE_DEBUG ?=

#  If parallel applications, use at most one of these definitions
#  (leave both definitions blank in serial applications):

     USE_MPI ?=
  USE_OpenMP ?=

#  If distributed-memory, turn on compilation via the script "mpif90".
#  This is needed in some Linux operating systems. In some systems with
#  native MPI libraries the compilation does not require MPICH type
#  scripts. This macro is also convient when there are several fortran
#  compiliers (ifort, pgf90, pathf90) in the system that use mpif90.
#  In this, case the user need to select the desired compiler below and
#  turn on both USE_MPI and USE_MPIF90 macros.

  USE_MPIF90 ?=

#  If applicable, activate 64-bit compilation:

   USE_LARGE ?= on

#  If applicable, link with NetCDF-4 library. Notice that the NetCDF-4
#  library needs both the HDF5 and MPI libraries.

 USE_NETCDF4 ?=

#--------------------------------------------------------------------------
#  We are going to include a file with all the settings that depend on
#  the system and the compiler. We are going to build up the name of the
#  include file using information on both. Set your compiler here from
#  the following list:
#
#  Operating System        Compiler(s)
#
#     AIX:                    xlf
#     ALPHA:                  f90
#     CYGWIN:                 g95, df, ifort
#     Darwin:                 f90, xlf
#     IRIX:                   f90
#     Linux:                  ftn, ifc, ifort, pgi, path, g95, gfortran
#     SunOS:                  f95
#     UNICOS-mp:              ftn
#     SunOS/Linux:            ftn (Cray cross-compiler)
#
#  Feel free to send us additional rule files to include! Also, be sure
#  to check the appropriate file to make sure it has the right paths to
#  NetCDF and so on.
#--------------------------------------------------------------------------

        FORT ?= pgi

#--------------------------------------------------------------------------
#  Set directory for executable.
#--------------------------------------------------------------------------

      BINDIR ?= .

#==========================================================================
#  End of user-defined options. See also the machine-dependent include
#  file being used above.
#==========================================================================

#--------------------------------------------------------------------------
#  Set directory for temporary objects.
#--------------------------------------------------------------------------

SCRATCH_DIR ?= Build
 clean_list := core *.ipo $(SCRATCH_DIR)

ifeq "$(strip $(SCRATCH_DIR))" "."
  clean_list := core *.o *.oo *.mod *.f90 lib*.a *.bak
  clean_list += $(CURDIR)/*.ipo
endif
ifeq "$(strip $(SCRATCH_DIR))" "./"
  clean_list := core *.o *.oo *.ipo *.mod *.f90 lib*.a *.bak
  clean_list += $(CURDIR)/*.ipo
endif

#--------------------------------------------------------------------------
#  Notice that the token "libraries" is initialized with the ROMS/Utility
#  library to account for calls to objects in other ROMS libraries or
#  cycling dependencies. These type of dependencies are problematic in
#  some compilers during linking. This library appears twice at linking
#  step (beggining and almost the end of ROMS library list).
#--------------------------------------------------------------------------

   libraries := $(SCRATCH_DIR)/libNLM.a $(SCRATCH_DIR)/libUTIL.a

#--------------------------------------------------------------------------
#  Set Pattern rules.
#--------------------------------------------------------------------------

%.o: %.F

%.o: %.f90
	cd $(SCRATCH_DIR); $(FC) -c $(FFLAGS) $(notdir $<)

%.f90: %.F
	$(CPP) $(CPPFLAGS) $(MY_CPP_FLAGS) $< > $*.f90
	$(CLEAN) $*.f90

CLEAN := ROMS/Bin/cpp_clean

#--------------------------------------------------------------------------
#  Set C-preprocessing flags associated with ROMS application. They are
#  used in "ROMS/Include/cppdefs.h" to include the appropriate application
#  header file.
#--------------------------------------------------------------------------

ifdef ROMS_APPLICATION
        HEADER := $(addsuffix .h, \
			$(shell echo ${ROMS_APPLICATION} | tr [A-Z] [a-z]))
 ROMS_CPPFLAGS := -D$(ROMS_APPLICATION)
 ROMS_CPPFLAGS += -D'HEADER="$(HEADER)"'
 ifdef MY_HEADER_DIR
  ROMS_CPPFLAGS += -D'ROMS_HEADER="$(MY_HEADER_DIR)/$(HEADER)"'
 else
  ROMS_CPPFLAGS += -D'ROMS_HEADER="$(HEADER)"'
 endif
 ifdef MY_CPP_FLAGS
  ROMS_CPPFLAGS += $(MY_CPP_FLAGS)
 endif
endif

#--------------------------------------------------------------------------
#  Internal macro definitions used to select the code to compile and
#  additional libraries to link. It uses the CPP activated in the
#  header file ROMS/Include/cppdefs.h to determine macro definitions.
#--------------------------------------------------------------------------

  COMPILERS ?= $(CURDIR)/Compilers

MAKE_MACROS := $(shell echo ${HOME} | sed 's| |\\ |g')/make_macros.mk

ifneq ($(MAKECMDGOALS),clean)
  MACROS := $(shell cpp -P $(ROMS_CPPFLAGS) Compilers/make_macros.h > \
              $(MAKE_MACROS); $(CLEAN) $(MAKE_MACROS))

  GET_MACROS := $(wildcard $(SCRATCH_DIR)/make_macros.*)

  ifdef GET_MACROS
    include $(SCRATCH_DIR)/make_macros.mk
  else
    include $(MAKE_MACROS)
  endif
endif

clean_list += $(MAKE_MACROS)

#--------------------------------------------------------------------------
#  Make functions for putting the temporary files in $(SCRATCH_DIR)
#  DO NOT modify this section; spaces and blank lines are needed.
#--------------------------------------------------------------------------

# $(call source-dir-to-binary-dir, directory-list)
source-dir-to-binary-dir = $(addprefix $(SCRATCH_DIR)/, $(notdir $1))

# $(call source-to-object, source-file-list)
source-to-object = $(call source-dir-to-binary-dir,   \
                   $(subst .F,.o,$1))

# $(call make-library, library-name, source-file-list)
define make-library
   libraries += $(SCRATCH_DIR)/$1
   sources   += $2

   $(SCRATCH_DIR)/$1: $(call source-dir-to-binary-dir,    \
                      $(subst .F,.o,$2))
	$(AR) $(ARFLAGS) $$@ $$^
	$(RANLIB) $$@
endef

# $(call f90-source, source-file-list)
f90-source = $(call source-dir-to-binary-dir,     \
                   $(subst .F,.f90,$1))

# $(compile-rules)
define compile-rules
  $(foreach f, $(local_src),       \
    $(call one-compile-rule,$(call source-to-object,$f), \
    $(call f90-source,$f),$f))
endef

# $(call one-compile-rule, binary-file, f90-file, source-files)
define one-compile-rule
  $1: $2 $3
	cd $$(SCRATCH_DIR); $$(FC) -c $$(FFLAGS) $(notdir $2)

  $2: $3
	$$(CPP) $$(CPPFLAGS) $$(MY_CPP_FLAGS) $$< > $$@
	$$(CLEAN) $$@

endef

#--------------------------------------------------------------------------
#  Set ROMS/TOMS executable file name.
#--------------------------------------------------------------------------

BIN := $(BINDIR)/romsS
ifdef USE_DEBUG
  BIN := $(BINDIR)/romsG
else
 ifdef USE_MPI
   BIN := $(BINDIR)/romsM
 endif
 ifdef USE_OpenMP
   BIN := $(BINDIR)/romsO
 endif
endif

#--------------------------------------------------------------------------
#  Set name of module files for netCDF F90 interface. On some platforms
#  these will need to be overridden in the machine-dependent include file.
#--------------------------------------------------------------------------

   NETCDF_MODFILE := netcdf.mod
TYPESIZES_MODFILE := typesizes.mod

#--------------------------------------------------------------------------
#  "uname -s" should return the OS or kernel name and "uname -m" should
#  return the CPU or hardware name. In practice the results can be pretty
#  flaky. Run the results through sed to convert "/" and " " to "-",
#  then apply platform-specific conversions.
#--------------------------------------------------------------------------

OS := $(shell uname -s | sed 's/[\/ ]/-/g')
OS := $(patsubst CYGWIN_%,CYGWIN,$(OS))
OS := $(patsubst MINGW%,MINGW,$(OS))
OS := $(patsubst sn%,UNICOS-sn,$(OS))

CPU := $(shell uname -m | sed 's/[\/ ]/-/g')

SVNURL := $(shell svn info | grep '^URL:' | sed 's/URL: //')
SVNREV := $(shell svn info | grep '^Revision:' | sed 's/Revision: //')

ROOTDIR := $(shell pwd)

ifndef FORT
  $(error Variable FORT not set)
endif

ifneq ($(MAKECMDGOALS),clean)
  include $(COMPILERS)/$(OS)-$(strip $(FORT)).mk
endif

ifdef USE_MPI
 ifdef USE_OpenMP
  $(error You cannot activate USE_MPI and USE_OpenMP at the same time!)
 endif
endif

#--------------------------------------------------------------------------
#  Pass the platform variables to the preprocessor as macros. Convert to
#  valid, upper-case identifiers. Attach ROMS application  CPP options.
#--------------------------------------------------------------------------

CPPFLAGS += -D$(shell echo ${OS} | tr "-" "_" | tr [a-z] [A-Z])
CPPFLAGS += -D$(shell echo ${CPU} | tr "-" "_" | tr [a-z] [A-Z])
CPPFLAGS += -D$(shell echo ${FORT} | tr "-" "_" | tr [a-z] [A-Z])

CPPFLAGS += -D'ROOT_DIR="$(ROOTDIR)"'
ifdef ROMS_APPLICATION
  CPPFLAGS  += $(ROMS_CPPFLAGS)
  CPPFLAGS  += -DNestedGrids=$(NestedGrids)
  MDEPFLAGS += -DROMS_HEADER="$(HEADER)"
endif

ifndef MY_ANALYTICAL_DIR
  MY_ANALYTICAL_DIR := $(ROOTDIR)/ROMS/Functionals
endif
ifeq (,$(findstring ROMS/Functionals,$(MY_ANALYTICAL_DIR)))
  MY_ANALYTICAL := on
endif
CPPFLAGS += -D'ANALYTICAL_DIR="$(MY_ANALYTICAL_DIR)"'

ifdef MY_ANALYTICAL
  CPPFLAGS += -D'MY_ANALYTICAL="$(MY_ANALYTICAL)"'
endif

CPPFLAGS += -D'SVN_URL="$(SVNURL)"'
CPPFLAGS += -D'SVN_REV="$(SVNREV)"'

#--------------------------------------------------------------------------
#  Build target directories.
#--------------------------------------------------------------------------

.PHONY: all

all: $(SCRATCH_DIR) $(SCRATCH_DIR)/MakeDepend $(BIN) rm_macros

 modules  :=
ifdef USE_ADJOINT
 modules  +=	ROMS/Adjoint \
		ROMS/Adjoint/Biology
endif
ifdef USE_REPRESENTER
 modules  +=	ROMS/Representer \
		ROMS/Representer/Biology
endif
ifdef USE_SEAICE
 modules  +=	ROMS/Nonlinear/SeaIce
endif
ifdef USE_TANGENT
 modules  +=	ROMS/Tangent \
		ROMS/Tangent/Biology
endif
 modules  +=	ROMS/Nonlinear \
		ROMS/Nonlinear/Biology \
		ROMS/Nonlinear/Sediment \
		ROMS/Functionals \
		ROMS/Utility \
		ROMS/Modules

 includes :=	ROMS/Include
ifdef MY_ANALYTICAL
 includes +=	$(MY_ANALYTICAL_DIR)
endif
ifdef USE_ADJOINT
 includes +=	ROMS/Adjoint \
		ROMS/Adjoint/Biology
endif
ifdef USE_REPRESENTER
 includes +=	ROMS/Representer \
		ROMS/Representer/Biology
endif
ifdef USE_SEAICE
 includes +=	ROMS/Nonlinear/SeaIce
endif
ifdef USE_TANGENT
 includes +=	ROMS/Tangent \
		ROMS/Tangent/Biology
endif
 includes +=	ROMS/Nonlinear \
		ROMS/Nonlinear/Biology \
		ROMS/Nonlinear/Sediment \
		ROMS/Utility \
		ROMS/Drivers \
                ROMS/Functionals
ifdef MY_HEADER_DIR
 includes +=	$(MY_HEADER_DIR)
endif

ifdef USE_COAMPS
 includes +=	$(COAMPS_LIB_DIR)
endif

ifdef USE_SWAN
 modules  +=	Waves/SWAN/Src
 includes +=	Waves/SWAN/Src
endif

ifdef USE_WRF
 ifeq "$(strip $(WRF_LIB_DIR))" "$(WRF_SRC_DIR)"
  includes +=	$(addprefix $(WRF_LIB_DIR)/,$(WRF_MOD_DIRS))
 else
  includes +=	$(WRF_LIB_DIR)
 endif
endif

 modules  +=	Master
 includes +=	Master Compilers

vpath %.F $(modules)
vpath %.h $(includes)
vpath %.f90 $(SCRATCH_DIR)
vpath %.o $(SCRATCH_DIR)

include $(addsuffix /Module.mk,$(modules))

MDEPFLAGS += $(patsubst %,-I %,$(includes)) --silent --moddir $(SCRATCH_DIR)

CPPFLAGS  += $(patsubst %,-I%,$(includes))

ifdef MY_HEADER_DIR
  CPPFLAGS += -D'HEADER_DIR="$(MY_HEADER_DIR)"'
else
  CPPFLAGS += -D'HEADER_DIR="$(ROOTDIR)/ROMS/Include"'
endif

$(SCRATCH_DIR):
	$(shell $(TEST) -d $(SCRATCH_DIR) || $(MKDIR) $(SCRATCH_DIR) )

#--------------------------------------------------------------------------
#  Special CPP macros for mod_strings.F
#--------------------------------------------------------------------------

$(SCRATCH_DIR)/mod_strings.f90: CPPFLAGS += -DMY_OS='"$(OS)"' \
              -DMY_CPU='"$(CPU)"' -DMY_FORT='"$(FORT)"' \
              -DMY_FC='"$(FC)"' -DMY_FFLAGS='"$(FFLAGS)"'

#--------------------------------------------------------------------------
#  ROMS/TOMS libraries.
#--------------------------------------------------------------------------

MYLIB := libroms.a

.PHONY: libraries

libraries: $(libraries)

#--------------------------------------------------------------------------
#  Target to create ROMS/TOMS dependecies.
#--------------------------------------------------------------------------

$(SCRATCH_DIR)/$(NETCDF_MODFILE): | $(SCRATCH_DIR)
	cp -f $(NETCDF_INCDIR)/$(NETCDF_MODFILE) $(SCRATCH_DIR)

$(SCRATCH_DIR)/$(TYPESIZES_MODFILE): | $(SCRATCH_DIR)
	cp -f $(NETCDF_INCDIR)/$(TYPESIZES_MODFILE) $(SCRATCH_DIR)

$(SCRATCH_DIR)/MakeDepend: makefile \
                           $(SCRATCH_DIR)/$(NETCDF_MODFILE) \
                           $(SCRATCH_DIR)/$(TYPESIZES_MODFILE) \
                           | $(SCRATCH_DIR)
	@ $(SFMAKEDEPEND) $(MDEPFLAGS) $(sources) > $(SCRATCH_DIR)/MakeDepend
	cp -p $(MAKE_MACROS) $(SCRATCH_DIR)

.PHONY: depend

SFMAKEDEPEND := ./ROMS/Bin/sfmakedepend

depend: $(SCRATCH_DIR)
	$(SFMAKEDEPEND) $(MDEPFLAGS) $(sources) > $(SCRATCH_DIR)/MakeDepend

ifneq ($(MAKECMDGOALS),clean)
  -include $(SCRATCH_DIR)/MakeDepend
endif

#--------------------------------------------------------------------------
#  Target to create ROMS/TOMS tar file.
#--------------------------------------------------------------------------

.PHONY: tarfile

tarfile:
		tar --exclude=".svn" -cvf roms-3_7.tar *

.PHONY: zipfile

zipfile:
		zip -r roms-3_7.zip *

.PHONY: gzipfile

gzipfile:
		gzip -v roms-3_7.gzip *

#--------------------------------------------------------------------------
#  Cleaning targets.
#--------------------------------------------------------------------------

.PHONY: clean

clean:
	$(RM) -r $(clean_list)

.PHONY: rm_macros

rm_macros:
	$(RM) -r $(MAKE_MACROS)

#--------------------------------------------------------------------------
#  A handy debugging target. This will allow to print the value of any
#  makefile defined macro (see http://tinyurl.com/8ax3j). For example,
#  to find the value of CPPFLAGS execute:
#
#        gmake print-CPPFLAGS
#  or
#        make print-CPPFLAGS
#--------------------------------------------------------------------------

.PHONY: print-%

print-%:
	@echo $* = $($*)
# DO NOT DELETE THIS LINE - used by make depend
coupler.o: mct_coupler.h mct_roms_wrf.h tile.h mct_roms_swan.h cppdefs.h
coupler.o: globaldefs.h
coupler.o: /home/twu27/ROMS/trunk/compile_test/Build/distribute.o
coupler.o: /home/twu27/ROMS/trunk/compile_test/Build/mod_coupler.o
coupler.o: /home/twu27/ROMS/trunk/compile_test/Build/mod_forces.o
coupler.o: /home/twu27/ROMS/trunk/compile_test/Build/mod_grid.o
coupler.o: /home/twu27/ROMS/trunk/compile_test/Build/mod_iounits.o
coupler.o: /home/twu27/ROMS/trunk/compile_test/Build/mod_kinds.o
coupler.o: /home/twu27/ROMS/trunk/compile_test/Build/mod_ocean.o
coupler.o: /home/twu27/ROMS/trunk/compile_test/Build/mod_parallel.o
coupler.o: /home/twu27/ROMS/trunk/compile_test/Build/mod_param.o
coupler.o: /home/twu27/ROMS/trunk/compile_test/Build/mod_scalars.o
coupler.o: /home/twu27/ROMS/trunk/compile_test/Build/mod_sedbed.o
coupler.o: /home/twu27/ROMS/trunk/compile_test/Build/mod_sediment.o
coupler.o: /home/twu27/ROMS/trunk/compile_test/Build/mod_stepping.o
coupler.o: /home/twu27/ROMS/trunk/compile_test/Build/roms_export.o
coupler.o: /home/twu27/ROMS/trunk/compile_test/Build/roms_import.o

esmf_roms.o: cppdefs.h globaldefs.h

master.o: esmf_driver.h ocean.h mct_driver.h cppdefs.h globaldefs.h
master.o: /home/twu27/ROMS/trunk/compile_test/Build/coupler.o
master.o: /home/twu27/ROMS/trunk/compile_test/Build/mod_coupler.o
master.o: /home/twu27/ROMS/trunk/compile_test/Build/mod_iounits.o
master.o: /home/twu27/ROMS/trunk/compile_test/Build/mod_parallel.o
master.o: /home/twu27/ROMS/trunk/compile_test/Build/mod_param.o
master.o: /home/twu27/ROMS/trunk/compile_test/Build/mod_scalars.o
master.o: /home/twu27/ROMS/trunk/compile_test/Build/ocean_control.o

ocean_control.o: tl_w4dpsas_ocean.h ad_ocean.h w4dpsas_ocean.h tl_ocean.h
ocean_control.o: correlation.h w4dvar_ocean.h hessian_so_ocean.h afte_ocean.h
ocean_control.o: fsv_ocean.h so_ocean.h obs_sen_w4dpsas.h so_semi_ocean.h
ocean_control.o: is4dvar_ocean.h pert_ocean.h nl_ocean.h optobs_ocean.h
ocean_control.o: cppdefs.h globaldefs.h fte_ocean.h op_ocean.h tlcheck_ocean.h
ocean_control.o: obs_sen_w4dvar.h array_modes_w4dvar.h obs_sen_is4dvar.h
ocean_control.o: picard_ocean.h adsen_ocean.h tl_w4dvar_ocean.h rp_ocean.h
ocean_control.o: obs_sen_w4dpsas_forecast.h symmetry.h hessian_op_ocean.h
ocean_control.o: /home/twu27/ROMS/trunk/compile_test/Build/analytical.o
ocean_control.o: /home/twu27/ROMS/trunk/compile_test/Build/array_modes.o
ocean_control.o: /home/twu27/ROMS/trunk/compile_test/Build/back_cost.o
ocean_control.o: /home/twu27/ROMS/trunk/compile_test/Build/cgradient.o
ocean_control.o: /home/twu27/ROMS/trunk/compile_test/Build/comp_Jb0.o
ocean_control.o: /home/twu27/ROMS/trunk/compile_test/Build/convolve.o
ocean_control.o: /home/twu27/ROMS/trunk/compile_test/Build/cost_grad.o
ocean_control.o: /home/twu27/ROMS/trunk/compile_test/Build/coupler.o
ocean_control.o: /home/twu27/ROMS/trunk/compile_test/Build/distribute.o
ocean_control.o: /home/twu27/ROMS/trunk/compile_test/Build/dotproduct.o
ocean_control.o: /home/twu27/ROMS/trunk/compile_test/Build/ini_adjust.o
ocean_control.o: /home/twu27/ROMS/trunk/compile_test/Build/ini_fields.o
ocean_control.o: /home/twu27/ROMS/trunk/compile_test/Build/mod_boundary.o
ocean_control.o: /home/twu27/ROMS/trunk/compile_test/Build/mod_forces.o
ocean_control.o: /home/twu27/ROMS/trunk/compile_test/Build/mod_fourdvar.o
ocean_control.o: /home/twu27/ROMS/trunk/compile_test/Build/mod_iounits.o
ocean_control.o: /home/twu27/ROMS/trunk/compile_test/Build/mod_mixing.o
ocean_control.o: /home/twu27/ROMS/trunk/compile_test/Build/mod_ncparam.o
ocean_control.o: /home/twu27/ROMS/trunk/compile_test/Build/mod_netcdf.o
ocean_control.o: /home/twu27/ROMS/trunk/compile_test/Build/mod_ocean.o
ocean_control.o: /home/twu27/ROMS/trunk/compile_test/Build/mod_parallel.o
ocean_control.o: /home/twu27/ROMS/trunk/compile_test/Build/mod_param.o
ocean_control.o: /home/twu27/ROMS/trunk/compile_test/Build/mod_scalars.o
ocean_control.o: /home/twu27/ROMS/trunk/compile_test/Build/mod_stepping.o
ocean_control.o: /home/twu27/ROMS/trunk/compile_test/Build/mod_storage.o
ocean_control.o: /home/twu27/ROMS/trunk/compile_test/Build/normalization.o
ocean_control.o: /home/twu27/ROMS/trunk/compile_test/Build/packing.o
ocean_control.o: /home/twu27/ROMS/trunk/compile_test/Build/posterior.o
ocean_control.o: /home/twu27/ROMS/trunk/compile_test/Build/posterior_var.o
ocean_control.o: /home/twu27/ROMS/trunk/compile_test/Build/propagator.o
ocean_control.o: /home/twu27/ROMS/trunk/compile_test/Build/random_ic.o
ocean_control.o: /home/twu27/ROMS/trunk/compile_test/Build/strings.o
ocean_control.o: /home/twu27/ROMS/trunk/compile_test/Build/sum_grad.o
ocean_control.o: /home/twu27/ROMS/trunk/compile_test/Build/sum_imp.o
ocean_control.o: /home/twu27/ROMS/trunk/compile_test/Build/zeta_balance.o

propagator.o: propagator_fte.h propagator_so_semi.h propagator_so.h
propagator.o: propagator_op.h propagator_hso.h propagator_afte.h cppdefs.h
propagator.o: globaldefs.h propagator_fsv.h propagator_hop.h
propagator.o: /home/twu27/ROMS/trunk/compile_test/Build/dotproduct.o
propagator.o: /home/twu27/ROMS/trunk/compile_test/Build/ini_adjust.o
propagator.o: /home/twu27/ROMS/trunk/compile_test/Build/inner2state.o
propagator.o: /home/twu27/ROMS/trunk/compile_test/Build/mod_coupling.o
propagator.o: /home/twu27/ROMS/trunk/compile_test/Build/mod_forces.o
propagator.o: /home/twu27/ROMS/trunk/compile_test/Build/mod_iounits.o
propagator.o: /home/twu27/ROMS/trunk/compile_test/Build/mod_kinds.o
propagator.o: /home/twu27/ROMS/trunk/compile_test/Build/mod_netcdf.o
propagator.o: /home/twu27/ROMS/trunk/compile_test/Build/mod_ocean.o
propagator.o: /home/twu27/ROMS/trunk/compile_test/Build/mod_parallel.o
propagator.o: /home/twu27/ROMS/trunk/compile_test/Build/mod_param.o
propagator.o: /home/twu27/ROMS/trunk/compile_test/Build/mod_scalars.o
propagator.o: /home/twu27/ROMS/trunk/compile_test/Build/mod_stepping.o
propagator.o: /home/twu27/ROMS/trunk/compile_test/Build/mod_storage.o
propagator.o: /home/twu27/ROMS/trunk/compile_test/Build/packing.o
propagator.o: /home/twu27/ROMS/trunk/compile_test/Build/set_depth.o
propagator.o: /home/twu27/ROMS/trunk/compile_test/Build/strings.o

roms_export.o: set_bounds.h cppdefs.h globaldefs.h
roms_export.o: /home/twu27/ROMS/trunk/compile_test/Build/distribute.o
roms_export.o: /home/twu27/ROMS/trunk/compile_test/Build/mod_kinds.o
roms_export.o: /home/twu27/ROMS/trunk/compile_test/Build/mod_ncparam.o
roms_export.o: /home/twu27/ROMS/trunk/compile_test/Build/mod_param.o

roms_import.o: cppdefs.h globaldefs.h
roms_import.o: /home/twu27/ROMS/trunk/compile_test/Build/distribute.o
roms_import.o: /home/twu27/ROMS/trunk/compile_test/Build/exchange_2d.o
roms_import.o: /home/twu27/ROMS/trunk/compile_test/Build/mod_kinds.o
roms_import.o: /home/twu27/ROMS/trunk/compile_test/Build/mod_ncparam.o
roms_import.o: /home/twu27/ROMS/trunk/compile_test/Build/mod_param.o
roms_import.o: /home/twu27/ROMS/trunk/compile_test/Build/mod_scalars.o
roms_import.o: /home/twu27/ROMS/trunk/compile_test/Build/mp_exchange.o

analytical.o: ana_ssh.h set_bounds.h tile.h ana_tobc.h ana_fsobc.h
analytical.o: ana_passive.h ana_drag.h ana_stflux.h ana_spinning.h
analytical.o: ana_m2clima.h ana_psource.h ana_rain.h ana_cloud.h ana_specir.h
analytical.o: ana_scope.h ana_humid.h ana_initial.h ana_sst.h ana_grid.h
analytical.o: ana_nudgcoef.h ana_wwave.h ana_m3obc.h ana_sponge.h ana_btflux.h
analytical.o: ana_sss.h ana_tclima.h ana_diag.h ana_respiration.h ana_mask.h
analytical.o: ana_pair.h ana_m2obc.h ana_winds.h ana_biology.h ana_m3clima.h
analytical.o: ana_smflux.h ana_perturb.h ana_vmix.h ana_dqdsst.h ana_tair.h
analytical.o: cppdefs.h globaldefs.h ana_srflux.h ana_wtype.h ana_sediment.h
analytical.o: /home/twu27/ROMS/trunk/compile_test/Build/dateclock.o
analytical.o: /home/twu27/ROMS/trunk/compile_test/Build/distribute.o
analytical.o: /home/twu27/ROMS/trunk/compile_test/Build/erf.o
analytical.o: /home/twu27/ROMS/trunk/compile_test/Build/exchange_2d.o
analytical.o: /home/twu27/ROMS/trunk/compile_test/Build/exchange_3d.o
analytical.o: /home/twu27/ROMS/trunk/compile_test/Build/mod_biology.o
analytical.o: /home/twu27/ROMS/trunk/compile_test/Build/mod_boundary.o
analytical.o: /home/twu27/ROMS/trunk/compile_test/Build/mod_clima.o
analytical.o: /home/twu27/ROMS/trunk/compile_test/Build/mod_eclight.o
analytical.o: /home/twu27/ROMS/trunk/compile_test/Build/mod_forces.o
analytical.o: /home/twu27/ROMS/trunk/compile_test/Build/mod_grid.o
analytical.o: /home/twu27/ROMS/trunk/compile_test/Build/mod_iounits.o
analytical.o: /home/twu27/ROMS/trunk/compile_test/Build/mod_mixing.o
analytical.o: /home/twu27/ROMS/trunk/compile_test/Build/mod_ncparam.o
analytical.o: /home/twu27/ROMS/trunk/compile_test/Build/mod_ocean.o
analytical.o: /home/twu27/ROMS/trunk/compile_test/Build/mod_parallel.o
analytical.o: /home/twu27/ROMS/trunk/compile_test/Build/mod_param.o
analytical.o: /home/twu27/ROMS/trunk/compile_test/Build/mod_scalars.o
analytical.o: /home/twu27/ROMS/trunk/compile_test/Build/mod_sedbed.o
analytical.o: /home/twu27/ROMS/trunk/compile_test/Build/mod_sediment.o
analytical.o: /home/twu27/ROMS/trunk/compile_test/Build/mod_sources.o
analytical.o: /home/twu27/ROMS/trunk/compile_test/Build/mod_stepping.o
analytical.o: /home/twu27/ROMS/trunk/compile_test/Build/mp_exchange.o
analytical.o: /home/twu27/ROMS/trunk/compile_test/Build/stats.o

mod_arrays.o: cppdefs.h globaldefs.h
mod_arrays.o: /home/twu27/ROMS/trunk/compile_test/Build/mod_average.o
mod_arrays.o: /home/twu27/ROMS/trunk/compile_test/Build/mod_bbl.o
mod_arrays.o: /home/twu27/ROMS/trunk/compile_test/Build/mod_boundary.o
mod_arrays.o: /home/twu27/ROMS/trunk/compile_test/Build/mod_clima.o
mod_arrays.o: /home/twu27/ROMS/trunk/compile_test/Build/mod_coupling.o
mod_arrays.o: /home/twu27/ROMS/trunk/compile_test/Build/mod_diags.o
mod_arrays.o: /home/twu27/ROMS/trunk/compile_test/Build/mod_forces.o
mod_arrays.o: /home/twu27/ROMS/trunk/compile_test/Build/mod_grid.o
mod_arrays.o: /home/twu27/ROMS/trunk/compile_test/Build/mod_mixing.o
mod_arrays.o: /home/twu27/ROMS/trunk/compile_test/Build/mod_nesting.o
mod_arrays.o: /home/twu27/ROMS/trunk/compile_test/Build/mod_ocean.o
mod_arrays.o: /home/twu27/ROMS/trunk/compile_test/Build/mod_parallel.o
mod_arrays.o: /home/twu27/ROMS/trunk/compile_test/Build/mod_param.o
mod_arrays.o: /home/twu27/ROMS/trunk/compile_test/Build/mod_scalars.o
mod_arrays.o: /home/twu27/ROMS/trunk/compile_test/Build/mod_sedbed.o
mod_arrays.o: /home/twu27/ROMS/trunk/compile_test/Build/mod_sources.o
mod_arrays.o: /home/twu27/ROMS/trunk/compile_test/Build/mod_tides.o

mod_average.o: set_bounds.h cppdefs.h globaldefs.h
mod_average.o: /home/twu27/ROMS/trunk/compile_test/Build/mod_kinds.o
mod_average.o: /home/twu27/ROMS/trunk/compile_test/Build/mod_ncparam.o
mod_average.o: /home/twu27/ROMS/trunk/compile_test/Build/mod_param.o
mod_average.o: /home/twu27/ROMS/trunk/compile_test/Build/mod_scalars.o

mod_bbl.o: set_bounds.h cppdefs.h globaldefs.h
mod_bbl.o: /home/twu27/ROMS/trunk/compile_test/Build/mod_kinds.o
mod_bbl.o: /home/twu27/ROMS/trunk/compile_test/Build/mod_param.o

mod_behavior.o: oyster_floats_mod.h cppdefs.h globaldefs.h
mod_behavior.o: /home/twu27/ROMS/trunk/compile_test/Build/mod_param.o

mod_biology.o: red_tide_mod.h npzd_iron_mod.h cppdefs.h globaldefs.h
mod_biology.o: npzd_Franks_mod.h npzd_Powell_mod.h nemuro_mod.h ecosim_mod.h
mod_biology.o: hypoxia_srm_mod.h fennel_mod.h
mod_biology.o: /home/twu27/ROMS/trunk/compile_test/Build/mod_param.o
mod_biology.o: /home/twu27/ROMS/trunk/compile_test/Build/mod_scalars.o

mod_boundary.o: set_bounds.h cppdefs.h globaldefs.h
mod_boundary.o: /home/twu27/ROMS/trunk/compile_test/Build/mod_kinds.o
mod_boundary.o: /home/twu27/ROMS/trunk/compile_test/Build/mod_ncparam.o
mod_boundary.o: /home/twu27/ROMS/trunk/compile_test/Build/mod_param.o
mod_boundary.o: /home/twu27/ROMS/trunk/compile_test/Build/mod_scalars.o

mod_clima.o: set_bounds.h cppdefs.h globaldefs.h
mod_clima.o: /home/twu27/ROMS/trunk/compile_test/Build/mod_kinds.o
mod_clima.o: /home/twu27/ROMS/trunk/compile_test/Build/mod_param.o
mod_clima.o: /home/twu27/ROMS/trunk/compile_test/Build/mod_scalars.o

mod_coupler.o: cppdefs.h globaldefs.h
mod_coupler.o: /home/twu27/ROMS/trunk/compile_test/Build/mod_iounits.o
mod_coupler.o: /home/twu27/ROMS/trunk/compile_test/Build/mod_ncparam.o
mod_coupler.o: /home/twu27/ROMS/trunk/compile_test/Build/mod_parallel.o
mod_coupler.o: /home/twu27/ROMS/trunk/compile_test/Build/mod_param.o
mod_coupler.o: /home/twu27/ROMS/trunk/compile_test/Build/mod_scalars.o

mod_coupling.o: set_bounds.h cppdefs.h globaldefs.h
mod_coupling.o: /home/twu27/ROMS/trunk/compile_test/Build/mod_kinds.o
mod_coupling.o: /home/twu27/ROMS/trunk/compile_test/Build/mod_param.o

mod_diags.o: set_bounds.h cppdefs.h globaldefs.h
mod_diags.o: /home/twu27/ROMS/trunk/compile_test/Build/mod_kinds.o
mod_diags.o: /home/twu27/ROMS/trunk/compile_test/Build/mod_param.o

mod_eclight.o: cppdefs.h globaldefs.h
mod_eclight.o: /home/twu27/ROMS/trunk/compile_test/Build/mod_biology.o
mod_eclight.o: /home/twu27/ROMS/trunk/compile_test/Build/mod_param.o

mod_eoscoef.o: cppdefs.h globaldefs.h
mod_eoscoef.o: /home/twu27/ROMS/trunk/compile_test/Build/mod_kinds.o

mod_floats.o: cppdefs.h globaldefs.h
mod_floats.o: /home/twu27/ROMS/trunk/compile_test/Build/mod_param.o
mod_floats.o: /home/twu27/ROMS/trunk/compile_test/Build/mod_scalars.o

mod_forces.o: set_bounds.h cppdefs.h globaldefs.h
mod_forces.o: /home/twu27/ROMS/trunk/compile_test/Build/mod_biology.o
mod_forces.o: /home/twu27/ROMS/trunk/compile_test/Build/mod_kinds.o
mod_forces.o: /home/twu27/ROMS/trunk/compile_test/Build/mod_param.o
mod_forces.o: /home/twu27/ROMS/trunk/compile_test/Build/mod_scalars.o

mod_fourdvar.o: cppdefs.h globaldefs.h
mod_fourdvar.o: /home/twu27/ROMS/trunk/compile_test/Build/mod_iounits.o
mod_fourdvar.o: /home/twu27/ROMS/trunk/compile_test/Build/mod_ncparam.o
mod_fourdvar.o: /home/twu27/ROMS/trunk/compile_test/Build/mod_netcdf.o
mod_fourdvar.o: /home/twu27/ROMS/trunk/compile_test/Build/mod_parallel.o
mod_fourdvar.o: /home/twu27/ROMS/trunk/compile_test/Build/mod_param.o
mod_fourdvar.o: /home/twu27/ROMS/trunk/compile_test/Build/mod_scalars.o
mod_fourdvar.o: /home/twu27/ROMS/trunk/compile_test/Build/strings.o

mod_grid.o: set_bounds.h cppdefs.h globaldefs.h
mod_grid.o: /home/twu27/ROMS/trunk/compile_test/Build/mod_kinds.o
mod_grid.o: /home/twu27/ROMS/trunk/compile_test/Build/mod_param.o
mod_grid.o: /home/twu27/ROMS/trunk/compile_test/Build/mod_scalars.o

mod_iounits.o: cppdefs.h globaldefs.h
mod_iounits.o: /home/twu27/ROMS/trunk/compile_test/Build/mod_param.o

mod_kinds.o: cppdefs.h globaldefs.h

mod_mixing.o: set_bounds.h cppdefs.h globaldefs.h
mod_mixing.o: /home/twu27/ROMS/trunk/compile_test/Build/mod_kinds.o
mod_mixing.o: /home/twu27/ROMS/trunk/compile_test/Build/mod_param.o
mod_mixing.o: /home/twu27/ROMS/trunk/compile_test/Build/mod_scalars.o

mod_ncparam.o: red_tide_var.h ecosim_var.h npzd_Franks_var.h npzd_iron_var.h
mod_ncparam.o: nemuro_var.h cppdefs.h globaldefs.h npzd_Powell_var.h
mod_ncparam.o: sediment_var.h fennel_var.h hypoxia_srm_var.h
mod_ncparam.o: /home/twu27/ROMS/trunk/compile_test/Build/mod_biology.o
mod_ncparam.o: /home/twu27/ROMS/trunk/compile_test/Build/mod_iounits.o
mod_ncparam.o: /home/twu27/ROMS/trunk/compile_test/Build/mod_parallel.o
mod_ncparam.o: /home/twu27/ROMS/trunk/compile_test/Build/mod_param.o
mod_ncparam.o: /home/twu27/ROMS/trunk/compile_test/Build/mod_scalars.o
mod_ncparam.o: /home/twu27/ROMS/trunk/compile_test/Build/mod_sediment.o

mod_nesting.o: cppdefs.h globaldefs.h
mod_nesting.o: /home/twu27/ROMS/trunk/compile_test/Build/mod_boundary.o
mod_nesting.o: /home/twu27/ROMS/trunk/compile_test/Build/mod_kinds.o
mod_nesting.o: /home/twu27/ROMS/trunk/compile_test/Build/mod_param.o
mod_nesting.o: /home/twu27/ROMS/trunk/compile_test/Build/mod_scalars.o

mod_netcdf.o: cppdefs.h globaldefs.h
mod_netcdf.o: /home/twu27/ROMS/trunk/compile_test/Build/dateclock.o
mod_netcdf.o: /home/twu27/ROMS/trunk/compile_test/Build/distribute.o
mod_netcdf.o: /home/twu27/ROMS/trunk/compile_test/Build/mod_iounits.o
mod_netcdf.o: /home/twu27/ROMS/trunk/compile_test/Build/mod_kinds.o
mod_netcdf.o: /home/twu27/ROMS/trunk/compile_test/Build/mod_ncparam.o
mod_netcdf.o: /home/twu27/ROMS/trunk/compile_test/Build/mod_parallel.o
mod_netcdf.o: /home/twu27/ROMS/trunk/compile_test/Build/mod_param.o
mod_netcdf.o: /home/twu27/ROMS/trunk/compile_test/Build/mod_scalars.o
mod_netcdf.o: /home/twu27/ROMS/trunk/compile_test/Build/strings.o

mod_ocean.o: set_bounds.h cppdefs.h globaldefs.h
mod_ocean.o: /home/twu27/ROMS/trunk/compile_test/Build/mod_kinds.o
mod_ocean.o: /home/twu27/ROMS/trunk/compile_test/Build/mod_param.o

mod_parallel.o: cppdefs.h globaldefs.h
mod_parallel.o: /home/twu27/ROMS/trunk/compile_test/Build/mod_iounits.o
mod_parallel.o: /home/twu27/ROMS/trunk/compile_test/Build/mod_param.o
mod_parallel.o: /home/twu27/ROMS/trunk/compile_test/Build/mod_scalars.o
mod_parallel.o: /home/twu27/ROMS/trunk/compile_test/Build/mod_strings.o

mod_param.o: cppdefs.h globaldefs.h
mod_param.o: /home/twu27/ROMS/trunk/compile_test/Build/mod_kinds.o

mod_scalars.o: cppdefs.h globaldefs.h
mod_scalars.o: /home/twu27/ROMS/trunk/compile_test/Build/mod_param.o

mod_sedbed.o: sedbed_mod.h set_bounds.h cppdefs.h globaldefs.h
mod_sedbed.o: /home/twu27/ROMS/trunk/compile_test/Build/mod_kinds.o
mod_sedbed.o: /home/twu27/ROMS/trunk/compile_test/Build/mod_ncparam.o
mod_sedbed.o: /home/twu27/ROMS/trunk/compile_test/Build/mod_param.o
mod_sedbed.o: /home/twu27/ROMS/trunk/compile_test/Build/mod_sediment.o

mod_sediment.o: sediment_mod.h cppdefs.h globaldefs.h
mod_sediment.o: /home/twu27/ROMS/trunk/compile_test/Build/mod_param.o

mod_sources.o: cppdefs.h globaldefs.h
mod_sources.o: /home/twu27/ROMS/trunk/compile_test/Build/mod_iounits.o
mod_sources.o: /home/twu27/ROMS/trunk/compile_test/Build/mod_kinds.o
mod_sources.o: /home/twu27/ROMS/trunk/compile_test/Build/mod_ncparam.o
mod_sources.o: /home/twu27/ROMS/trunk/compile_test/Build/mod_netcdf.o
mod_sources.o: /home/twu27/ROMS/trunk/compile_test/Build/mod_parallel.o
mod_sources.o: /home/twu27/ROMS/trunk/compile_test/Build/mod_param.o
mod_sources.o: /home/twu27/ROMS/trunk/compile_test/Build/mod_scalars.o
mod_sources.o: /home/twu27/ROMS/trunk/compile_test/Build/strings.o

mod_stepping.o: cppdefs.h globaldefs.h
mod_stepping.o: /home/twu27/ROMS/trunk/compile_test/Build/mod_param.o

mod_storage.o: cppdefs.h globaldefs.h
mod_storage.o: /home/twu27/ROMS/trunk/compile_test/Build/mod_param.o
mod_storage.o: /home/twu27/ROMS/trunk/compile_test/Build/mod_scalars.o

mod_strings.o: cppdefs.h globaldefs.h

mod_tides.o: set_bounds.h cppdefs.h globaldefs.h
mod_tides.o: /home/twu27/ROMS/trunk/compile_test/Build/mod_iounits.o
mod_tides.o: /home/twu27/ROMS/trunk/compile_test/Build/mod_kinds.o
mod_tides.o: /home/twu27/ROMS/trunk/compile_test/Build/mod_ncparam.o
mod_tides.o: /home/twu27/ROMS/trunk/compile_test/Build/mod_netcdf.o
mod_tides.o: /home/twu27/ROMS/trunk/compile_test/Build/mod_parallel.o
mod_tides.o: /home/twu27/ROMS/trunk/compile_test/Build/mod_param.o
mod_tides.o: /home/twu27/ROMS/trunk/compile_test/Build/mod_scalars.o
mod_tides.o: /home/twu27/ROMS/trunk/compile_test/Build/mod_stepping.o
mod_tides.o: /home/twu27/ROMS/trunk/compile_test/Build/strings.o

biology.o: fennel.h set_bounds.h tile.h cppdefs.h globaldefs.h red_tide.h
biology.o: npzd_iron.h ecosim.h hypoxia_srm.h nemuro.h npzd_Franks.h
biology.o: npzd_Powell.h
biology.o: /home/twu27/ROMS/trunk/compile_test/Build/dateclock.o
biology.o: /home/twu27/ROMS/trunk/compile_test/Build/mod_biology.o
biology.o: /home/twu27/ROMS/trunk/compile_test/Build/mod_diags.o
biology.o: /home/twu27/ROMS/trunk/compile_test/Build/mod_eclight.o
biology.o: /home/twu27/ROMS/trunk/compile_test/Build/mod_forces.o
biology.o: /home/twu27/ROMS/trunk/compile_test/Build/mod_grid.o
biology.o: /home/twu27/ROMS/trunk/compile_test/Build/mod_iounits.o
biology.o: /home/twu27/ROMS/trunk/compile_test/Build/mod_kinds.o
biology.o: /home/twu27/ROMS/trunk/compile_test/Build/mod_ncparam.o
biology.o: /home/twu27/ROMS/trunk/compile_test/Build/mod_ocean.o
biology.o: /home/twu27/ROMS/trunk/compile_test/Build/mod_param.o
biology.o: /home/twu27/ROMS/trunk/compile_test/Build/mod_scalars.o
biology.o: /home/twu27/ROMS/trunk/compile_test/Build/mod_stepping.o

biology_floats.o: oyster_floats.h cppdefs.h globaldefs.h
biology_floats.o: /home/twu27/ROMS/trunk/compile_test/Build/mod_behavior.o
biology_floats.o: /home/twu27/ROMS/trunk/compile_test/Build/mod_biology.o
biology_floats.o: /home/twu27/ROMS/trunk/compile_test/Build/mod_floats.o
biology_floats.o: /home/twu27/ROMS/trunk/compile_test/Build/mod_grid.o
biology_floats.o: /home/twu27/ROMS/trunk/compile_test/Build/mod_iounits.o
biology_floats.o: /home/twu27/ROMS/trunk/compile_test/Build/mod_parallel.o
biology_floats.o: /home/twu27/ROMS/trunk/compile_test/Build/mod_param.o
biology_floats.o: /home/twu27/ROMS/trunk/compile_test/Build/mod_scalars.o
biology_floats.o: /home/twu27/ROMS/trunk/compile_test/Build/mod_stepping.o

sed_bed.o: set_bounds.h tile.h cppdefs.h globaldefs.h
sed_bed.o: /home/twu27/ROMS/trunk/compile_test/Build/bc_3d.o
sed_bed.o: /home/twu27/ROMS/trunk/compile_test/Build/exchange_2d.o
sed_bed.o: /home/twu27/ROMS/trunk/compile_test/Build/mod_bbl.o
sed_bed.o: /home/twu27/ROMS/trunk/compile_test/Build/mod_forces.o
sed_bed.o: /home/twu27/ROMS/trunk/compile_test/Build/mod_grid.o
sed_bed.o: /home/twu27/ROMS/trunk/compile_test/Build/mod_ocean.o
sed_bed.o: /home/twu27/ROMS/trunk/compile_test/Build/mod_param.o
sed_bed.o: /home/twu27/ROMS/trunk/compile_test/Build/mod_scalars.o
sed_bed.o: /home/twu27/ROMS/trunk/compile_test/Build/mod_sedbed.o
sed_bed.o: /home/twu27/ROMS/trunk/compile_test/Build/mod_sediment.o
sed_bed.o: /home/twu27/ROMS/trunk/compile_test/Build/mod_stepping.o
sed_bed.o: /home/twu27/ROMS/trunk/compile_test/Build/mp_exchange.o

sed_bedload.o: set_bounds.h tile.h cppdefs.h globaldefs.h
sed_bedload.o: /home/twu27/ROMS/trunk/compile_test/Build/bc_3d.o
sed_bedload.o: /home/twu27/ROMS/trunk/compile_test/Build/exchange_2d.o
sed_bedload.o: /home/twu27/ROMS/trunk/compile_test/Build/mod_bbl.o
sed_bedload.o: /home/twu27/ROMS/trunk/compile_test/Build/mod_forces.o
sed_bedload.o: /home/twu27/ROMS/trunk/compile_test/Build/mod_grid.o
sed_bedload.o: /home/twu27/ROMS/trunk/compile_test/Build/mod_ncparam.o
sed_bedload.o: /home/twu27/ROMS/trunk/compile_test/Build/mod_ocean.o
sed_bedload.o: /home/twu27/ROMS/trunk/compile_test/Build/mod_param.o
sed_bedload.o: /home/twu27/ROMS/trunk/compile_test/Build/mod_scalars.o
sed_bedload.o: /home/twu27/ROMS/trunk/compile_test/Build/mod_sedbed.o
sed_bedload.o: /home/twu27/ROMS/trunk/compile_test/Build/mod_sediment.o
sed_bedload.o: /home/twu27/ROMS/trunk/compile_test/Build/mod_stepping.o
sed_bedload.o: /home/twu27/ROMS/trunk/compile_test/Build/mp_exchange.o

sed_fluxes.o: set_bounds.h tile.h cppdefs.h globaldefs.h
sed_fluxes.o: /home/twu27/ROMS/trunk/compile_test/Build/mod_bbl.o
sed_fluxes.o: /home/twu27/ROMS/trunk/compile_test/Build/mod_forces.o
sed_fluxes.o: /home/twu27/ROMS/trunk/compile_test/Build/mod_grid.o
sed_fluxes.o: /home/twu27/ROMS/trunk/compile_test/Build/mod_ocean.o
sed_fluxes.o: /home/twu27/ROMS/trunk/compile_test/Build/mod_param.o
sed_fluxes.o: /home/twu27/ROMS/trunk/compile_test/Build/mod_scalars.o
sed_fluxes.o: /home/twu27/ROMS/trunk/compile_test/Build/mod_sedbed.o
sed_fluxes.o: /home/twu27/ROMS/trunk/compile_test/Build/mod_sediment.o
sed_fluxes.o: /home/twu27/ROMS/trunk/compile_test/Build/mod_stepping.o

sed_settling.o: set_bounds.h tile.h cppdefs.h globaldefs.h
sed_settling.o: /home/twu27/ROMS/trunk/compile_test/Build/mod_forces.o
sed_settling.o: /home/twu27/ROMS/trunk/compile_test/Build/mod_grid.o
sed_settling.o: /home/twu27/ROMS/trunk/compile_test/Build/mod_ocean.o
sed_settling.o: /home/twu27/ROMS/trunk/compile_test/Build/mod_param.o
sed_settling.o: /home/twu27/ROMS/trunk/compile_test/Build/mod_scalars.o
sed_settling.o: /home/twu27/ROMS/trunk/compile_test/Build/mod_sedbed.o
sed_settling.o: /home/twu27/ROMS/trunk/compile_test/Build/mod_sediment.o
sed_settling.o: /home/twu27/ROMS/trunk/compile_test/Build/mod_stepping.o

sed_surface.o: set_bounds.h tile.h cppdefs.h globaldefs.h
sed_surface.o: /home/twu27/ROMS/trunk/compile_test/Build/bc_3d.o
sed_surface.o: /home/twu27/ROMS/trunk/compile_test/Build/mod_ocean.o
sed_surface.o: /home/twu27/ROMS/trunk/compile_test/Build/mod_param.o
sed_surface.o: /home/twu27/ROMS/trunk/compile_test/Build/mod_scalars.o
sed_surface.o: /home/twu27/ROMS/trunk/compile_test/Build/mod_sedbed.o
sed_surface.o: /home/twu27/ROMS/trunk/compile_test/Build/mod_sediment.o
sed_surface.o: /home/twu27/ROMS/trunk/compile_test/Build/mod_stepping.o
sed_surface.o: /home/twu27/ROMS/trunk/compile_test/Build/mp_exchange.o

sediment.o: cppdefs.h globaldefs.h
sediment.o: /home/twu27/ROMS/trunk/compile_test/Build/sed_bed.o
sediment.o: /home/twu27/ROMS/trunk/compile_test/Build/sed_bedload.o
sediment.o: /home/twu27/ROMS/trunk/compile_test/Build/sed_fluxes.o
sediment.o: /home/twu27/ROMS/trunk/compile_test/Build/sed_settling.o
sediment.o: /home/twu27/ROMS/trunk/compile_test/Build/sed_surface.o

bbl.o: mb_bbl.h set_bounds.h tile.h sg_bbl.h ssw_bbl.h cppdefs.h globaldefs.h
bbl.o: /home/twu27/ROMS/trunk/compile_test/Build/bc_2d.o
bbl.o: /home/twu27/ROMS/trunk/compile_test/Build/mod_bbl.o
bbl.o: /home/twu27/ROMS/trunk/compile_test/Build/mod_forces.o
bbl.o: /home/twu27/ROMS/trunk/compile_test/Build/mod_grid.o
bbl.o: /home/twu27/ROMS/trunk/compile_test/Build/mod_iounits.o
bbl.o: /home/twu27/ROMS/trunk/compile_test/Build/mod_ocean.o
bbl.o: /home/twu27/ROMS/trunk/compile_test/Build/mod_parallel.o
bbl.o: /home/twu27/ROMS/trunk/compile_test/Build/mod_param.o
bbl.o: /home/twu27/ROMS/trunk/compile_test/Build/mod_scalars.o
bbl.o: /home/twu27/ROMS/trunk/compile_test/Build/mod_sedbed.o
bbl.o: /home/twu27/ROMS/trunk/compile_test/Build/mod_sediment.o
bbl.o: /home/twu27/ROMS/trunk/compile_test/Build/mod_stepping.o
bbl.o: /home/twu27/ROMS/trunk/compile_test/Build/mp_exchange.o

bc_2d.o: set_bounds.h cppdefs.h globaldefs.h
bc_2d.o: /home/twu27/ROMS/trunk/compile_test/Build/exchange_2d.o
bc_2d.o: /home/twu27/ROMS/trunk/compile_test/Build/mod_boundary.o
bc_2d.o: /home/twu27/ROMS/trunk/compile_test/Build/mod_grid.o
bc_2d.o: /home/twu27/ROMS/trunk/compile_test/Build/mod_ncparam.o
bc_2d.o: /home/twu27/ROMS/trunk/compile_test/Build/mod_param.o
bc_2d.o: /home/twu27/ROMS/trunk/compile_test/Build/mod_scalars.o

bc_3d.o: set_bounds.h cppdefs.h globaldefs.h
bc_3d.o: /home/twu27/ROMS/trunk/compile_test/Build/exchange_3d.o
bc_3d.o: /home/twu27/ROMS/trunk/compile_test/Build/mod_boundary.o
bc_3d.o: /home/twu27/ROMS/trunk/compile_test/Build/mod_grid.o
bc_3d.o: /home/twu27/ROMS/trunk/compile_test/Build/mod_ncparam.o
bc_3d.o: /home/twu27/ROMS/trunk/compile_test/Build/mod_param.o
bc_3d.o: /home/twu27/ROMS/trunk/compile_test/Build/mod_scalars.o

bc_4d.o: set_bounds.h cppdefs.h globaldefs.h
bc_4d.o: /home/twu27/ROMS/trunk/compile_test/Build/exchange_4d.o
bc_4d.o: /home/twu27/ROMS/trunk/compile_test/Build/mod_boundary.o
bc_4d.o: /home/twu27/ROMS/trunk/compile_test/Build/mod_grid.o
bc_4d.o: /home/twu27/ROMS/trunk/compile_test/Build/mod_ncparam.o
bc_4d.o: /home/twu27/ROMS/trunk/compile_test/Build/mod_param.o
bc_4d.o: /home/twu27/ROMS/trunk/compile_test/Build/mod_scalars.o

bc_bry2d.o: set_bounds.h cppdefs.h globaldefs.h
bc_bry2d.o: /home/twu27/ROMS/trunk/compile_test/Build/mod_param.o
bc_bry2d.o: /home/twu27/ROMS/trunk/compile_test/Build/mod_scalars.o

bc_bry3d.o: set_bounds.h cppdefs.h globaldefs.h
bc_bry3d.o: /home/twu27/ROMS/trunk/compile_test/Build/mod_param.o
bc_bry3d.o: /home/twu27/ROMS/trunk/compile_test/Build/mod_scalars.o

bulk_flux.o: set_bounds.h tile.h cppdefs.h globaldefs.h
bulk_flux.o: /home/twu27/ROMS/trunk/compile_test/Build/exchange_2d.o
bulk_flux.o: /home/twu27/ROMS/trunk/compile_test/Build/mod_forces.o
bulk_flux.o: /home/twu27/ROMS/trunk/compile_test/Build/mod_grid.o
bulk_flux.o: /home/twu27/ROMS/trunk/compile_test/Build/mod_kinds.o
bulk_flux.o: /home/twu27/ROMS/trunk/compile_test/Build/mod_mixing.o
bulk_flux.o: /home/twu27/ROMS/trunk/compile_test/Build/mod_ocean.o
bulk_flux.o: /home/twu27/ROMS/trunk/compile_test/Build/mod_param.o
bulk_flux.o: /home/twu27/ROMS/trunk/compile_test/Build/mod_scalars.o
bulk_flux.o: /home/twu27/ROMS/trunk/compile_test/Build/mod_stepping.o
bulk_flux.o: /home/twu27/ROMS/trunk/compile_test/Build/mp_exchange.o

bvf_mix.o: set_bounds.h tile.h cppdefs.h globaldefs.h
bvf_mix.o: /home/twu27/ROMS/trunk/compile_test/Build/exchange_3d.o
bvf_mix.o: /home/twu27/ROMS/trunk/compile_test/Build/mod_mixing.o
bvf_mix.o: /home/twu27/ROMS/trunk/compile_test/Build/mod_param.o
bvf_mix.o: /home/twu27/ROMS/trunk/compile_test/Build/mod_scalars.o
bvf_mix.o: /home/twu27/ROMS/trunk/compile_test/Build/mp_exchange.o

conv_2d.o: set_bounds.h cppdefs.h globaldefs.h
conv_2d.o: /home/twu27/ROMS/trunk/compile_test/Build/bc_2d.o
conv_2d.o: /home/twu27/ROMS/trunk/compile_test/Build/mod_param.o
conv_2d.o: /home/twu27/ROMS/trunk/compile_test/Build/mod_scalars.o
conv_2d.o: /home/twu27/ROMS/trunk/compile_test/Build/mp_exchange.o

conv_3d.o: set_bounds.h cppdefs.h globaldefs.h
conv_3d.o: /home/twu27/ROMS/trunk/compile_test/Build/bc_3d.o
conv_3d.o: /home/twu27/ROMS/trunk/compile_test/Build/mod_param.o
conv_3d.o: /home/twu27/ROMS/trunk/compile_test/Build/mod_scalars.o
conv_3d.o: /home/twu27/ROMS/trunk/compile_test/Build/mp_exchange.o

conv_bry2d.o: set_bounds.h cppdefs.h globaldefs.h
conv_bry2d.o: /home/twu27/ROMS/trunk/compile_test/Build/bc_bry2d.o
conv_bry2d.o: /home/twu27/ROMS/trunk/compile_test/Build/mod_param.o
conv_bry2d.o: /home/twu27/ROMS/trunk/compile_test/Build/mod_scalars.o
conv_bry2d.o: /home/twu27/ROMS/trunk/compile_test/Build/mp_exchange.o

conv_bry3d.o: set_bounds.h cppdefs.h globaldefs.h
conv_bry3d.o: /home/twu27/ROMS/trunk/compile_test/Build/bc_bry3d.o
conv_bry3d.o: /home/twu27/ROMS/trunk/compile_test/Build/mod_param.o
conv_bry3d.o: /home/twu27/ROMS/trunk/compile_test/Build/mod_scalars.o
conv_bry3d.o: /home/twu27/ROMS/trunk/compile_test/Build/mp_exchange.o

diag.o: set_bounds.h tile.h cppdefs.h globaldefs.h
diag.o: /home/twu27/ROMS/trunk/compile_test/Build/analytical.o
diag.o: /home/twu27/ROMS/trunk/compile_test/Build/distribute.o
diag.o: /home/twu27/ROMS/trunk/compile_test/Build/mod_grid.o
diag.o: /home/twu27/ROMS/trunk/compile_test/Build/mod_iounits.o
diag.o: /home/twu27/ROMS/trunk/compile_test/Build/mod_ocean.o
diag.o: /home/twu27/ROMS/trunk/compile_test/Build/mod_parallel.o
diag.o: /home/twu27/ROMS/trunk/compile_test/Build/mod_param.o
diag.o: /home/twu27/ROMS/trunk/compile_test/Build/mod_scalars.o
diag.o: /home/twu27/ROMS/trunk/compile_test/Build/mod_stepping.o

exchange_2d.o: set_bounds.h cppdefs.h globaldefs.h
exchange_2d.o: /home/twu27/ROMS/trunk/compile_test/Build/mod_param.o
exchange_2d.o: /home/twu27/ROMS/trunk/compile_test/Build/mod_scalars.o

exchange_3d.o: set_bounds.h cppdefs.h globaldefs.h
exchange_3d.o: /home/twu27/ROMS/trunk/compile_test/Build/mod_param.o
exchange_3d.o: /home/twu27/ROMS/trunk/compile_test/Build/mod_scalars.o

exchange_4d.o: set_bounds.h cppdefs.h globaldefs.h
exchange_4d.o: /home/twu27/ROMS/trunk/compile_test/Build/mod_param.o
exchange_4d.o: /home/twu27/ROMS/trunk/compile_test/Build/mod_scalars.o

forcing.o: set_bounds.h tile.h cppdefs.h globaldefs.h
forcing.o: /home/twu27/ROMS/trunk/compile_test/Build/mod_coupling.o
forcing.o: /home/twu27/ROMS/trunk/compile_test/Build/mod_iounits.o
forcing.o: /home/twu27/ROMS/trunk/compile_test/Build/mod_ocean.o
forcing.o: /home/twu27/ROMS/trunk/compile_test/Build/mod_parallel.o
forcing.o: /home/twu27/ROMS/trunk/compile_test/Build/mod_param.o
forcing.o: /home/twu27/ROMS/trunk/compile_test/Build/mod_scalars.o

frc_adjust.o: set_bounds.h tile.h cppdefs.h globaldefs.h
frc_adjust.o: /home/twu27/ROMS/trunk/compile_test/Build/mod_forces.o
frc_adjust.o: /home/twu27/ROMS/trunk/compile_test/Build/mod_param.o
frc_adjust.o: /home/twu27/ROMS/trunk/compile_test/Build/mod_scalars.o

get_data.o: cppdefs.h globaldefs.h
get_data.o: /home/twu27/ROMS/trunk/compile_test/Build/mod_biology.o
get_data.o: /home/twu27/ROMS/trunk/compile_test/Build/mod_boundary.o
get_data.o: /home/twu27/ROMS/trunk/compile_test/Build/mod_clima.o
get_data.o: /home/twu27/ROMS/trunk/compile_test/Build/mod_forces.o
get_data.o: /home/twu27/ROMS/trunk/compile_test/Build/mod_grid.o
get_data.o: /home/twu27/ROMS/trunk/compile_test/Build/mod_iounits.o
get_data.o: /home/twu27/ROMS/trunk/compile_test/Build/mod_ncparam.o
get_data.o: /home/twu27/ROMS/trunk/compile_test/Build/mod_ocean.o
get_data.o: /home/twu27/ROMS/trunk/compile_test/Build/mod_param.o
get_data.o: /home/twu27/ROMS/trunk/compile_test/Build/mod_scalars.o
get_data.o: /home/twu27/ROMS/trunk/compile_test/Build/mod_sources.o
get_data.o: /home/twu27/ROMS/trunk/compile_test/Build/mod_stepping.o
get_data.o: /home/twu27/ROMS/trunk/compile_test/Build/strings.o

get_idata.o: cppdefs.h globaldefs.h
get_idata.o: /home/twu27/ROMS/trunk/compile_test/Build/mod_biology.o
get_idata.o: /home/twu27/ROMS/trunk/compile_test/Build/mod_grid.o
get_idata.o: /home/twu27/ROMS/trunk/compile_test/Build/mod_iounits.o
get_idata.o: /home/twu27/ROMS/trunk/compile_test/Build/mod_ncparam.o
get_idata.o: /home/twu27/ROMS/trunk/compile_test/Build/mod_netcdf.o
get_idata.o: /home/twu27/ROMS/trunk/compile_test/Build/mod_ocean.o
get_idata.o: /home/twu27/ROMS/trunk/compile_test/Build/mod_parallel.o
get_idata.o: /home/twu27/ROMS/trunk/compile_test/Build/mod_param.o
get_idata.o: /home/twu27/ROMS/trunk/compile_test/Build/mod_scalars.o
get_idata.o: /home/twu27/ROMS/trunk/compile_test/Build/mod_sources.o
get_idata.o: /home/twu27/ROMS/trunk/compile_test/Build/mod_stepping.o
get_idata.o: /home/twu27/ROMS/trunk/compile_test/Build/mod_tides.o
get_idata.o: /home/twu27/ROMS/trunk/compile_test/Build/nf_fread3d.o
get_idata.o: /home/twu27/ROMS/trunk/compile_test/Build/nf_fread4d.o
get_idata.o: /home/twu27/ROMS/trunk/compile_test/Build/strings.o

gls_corstep.o: set_bounds.h tile.h cppdefs.h globaldefs.h
gls_corstep.o: /home/twu27/ROMS/trunk/compile_test/Build/exchange_3d.o
gls_corstep.o: /home/twu27/ROMS/trunk/compile_test/Build/mod_forces.o
gls_corstep.o: /home/twu27/ROMS/trunk/compile_test/Build/mod_grid.o
gls_corstep.o: /home/twu27/ROMS/trunk/compile_test/Build/mod_mixing.o
gls_corstep.o: /home/twu27/ROMS/trunk/compile_test/Build/mod_ncparam.o
gls_corstep.o: /home/twu27/ROMS/trunk/compile_test/Build/mod_ocean.o
gls_corstep.o: /home/twu27/ROMS/trunk/compile_test/Build/mod_param.o
gls_corstep.o: /home/twu27/ROMS/trunk/compile_test/Build/mod_scalars.o
gls_corstep.o: /home/twu27/ROMS/trunk/compile_test/Build/mod_stepping.o
gls_corstep.o: /home/twu27/ROMS/trunk/compile_test/Build/mp_exchange.o
gls_corstep.o: /home/twu27/ROMS/trunk/compile_test/Build/tkebc_im.o

gls_prestep.o: set_bounds.h tile.h cppdefs.h globaldefs.h
gls_prestep.o: /home/twu27/ROMS/trunk/compile_test/Build/exchange_3d.o
gls_prestep.o: /home/twu27/ROMS/trunk/compile_test/Build/mod_grid.o
gls_prestep.o: /home/twu27/ROMS/trunk/compile_test/Build/mod_mixing.o
gls_prestep.o: /home/twu27/ROMS/trunk/compile_test/Build/mod_ncparam.o
gls_prestep.o: /home/twu27/ROMS/trunk/compile_test/Build/mod_ocean.o
gls_prestep.o: /home/twu27/ROMS/trunk/compile_test/Build/mod_param.o
gls_prestep.o: /home/twu27/ROMS/trunk/compile_test/Build/mod_scalars.o
gls_prestep.o: /home/twu27/ROMS/trunk/compile_test/Build/mod_stepping.o
gls_prestep.o: /home/twu27/ROMS/trunk/compile_test/Build/mp_exchange.o
gls_prestep.o: /home/twu27/ROMS/trunk/compile_test/Build/tkebc_im.o

hmixing.o: set_bounds.h tile.h cppdefs.h globaldefs.h
hmixing.o: /home/twu27/ROMS/trunk/compile_test/Build/exchange_3d.o
hmixing.o: /home/twu27/ROMS/trunk/compile_test/Build/mod_grid.o
hmixing.o: /home/twu27/ROMS/trunk/compile_test/Build/mod_mixing.o
hmixing.o: /home/twu27/ROMS/trunk/compile_test/Build/mod_ncparam.o
hmixing.o: /home/twu27/ROMS/trunk/compile_test/Build/mod_ocean.o
hmixing.o: /home/twu27/ROMS/trunk/compile_test/Build/mod_param.o
hmixing.o: /home/twu27/ROMS/trunk/compile_test/Build/mod_scalars.o
hmixing.o: /home/twu27/ROMS/trunk/compile_test/Build/mod_stepping.o
hmixing.o: /home/twu27/ROMS/trunk/compile_test/Build/mp_exchange.o

ini_fields.o: set_bounds.h tile.h cppdefs.h globaldefs.h
ini_fields.o: /home/twu27/ROMS/trunk/compile_test/Build/exchange_2d.o
ini_fields.o: /home/twu27/ROMS/trunk/compile_test/Build/exchange_3d.o
ini_fields.o: /home/twu27/ROMS/trunk/compile_test/Build/mod_coupling.o
ini_fields.o: /home/twu27/ROMS/trunk/compile_test/Build/mod_grid.o
ini_fields.o: /home/twu27/ROMS/trunk/compile_test/Build/mod_ncparam.o
ini_fields.o: /home/twu27/ROMS/trunk/compile_test/Build/mod_ocean.o
ini_fields.o: /home/twu27/ROMS/trunk/compile_test/Build/mod_param.o
ini_fields.o: /home/twu27/ROMS/trunk/compile_test/Build/mod_scalars.o
ini_fields.o: /home/twu27/ROMS/trunk/compile_test/Build/mod_sedbed.o
ini_fields.o: /home/twu27/ROMS/trunk/compile_test/Build/mod_sediment.o
ini_fields.o: /home/twu27/ROMS/trunk/compile_test/Build/mod_stepping.o
ini_fields.o: /home/twu27/ROMS/trunk/compile_test/Build/mp_exchange.o
ini_fields.o: /home/twu27/ROMS/trunk/compile_test/Build/t3dbc_im.o
ini_fields.o: /home/twu27/ROMS/trunk/compile_test/Build/u2dbc_im.o
ini_fields.o: /home/twu27/ROMS/trunk/compile_test/Build/u3dbc_im.o
ini_fields.o: /home/twu27/ROMS/trunk/compile_test/Build/v2dbc_im.o
ini_fields.o: /home/twu27/ROMS/trunk/compile_test/Build/v3dbc_im.o
ini_fields.o: /home/twu27/ROMS/trunk/compile_test/Build/zetabc.o

initial.o: cppdefs.h globaldefs.h
initial.o: /home/twu27/ROMS/trunk/compile_test/Build/analytical.o
initial.o: /home/twu27/ROMS/trunk/compile_test/Build/coupler.o
initial.o: /home/twu27/ROMS/trunk/compile_test/Build/dateclock.o
initial.o: /home/twu27/ROMS/trunk/compile_test/Build/distribute.o
initial.o: /home/twu27/ROMS/trunk/compile_test/Build/ini_adjust.o
initial.o: /home/twu27/ROMS/trunk/compile_test/Build/ini_hmixcoef.o
initial.o: /home/twu27/ROMS/trunk/compile_test/Build/metrics.o
initial.o: /home/twu27/ROMS/trunk/compile_test/Build/mod_bbl.o
initial.o: /home/twu27/ROMS/trunk/compile_test/Build/mod_fourdvar.o
initial.o: /home/twu27/ROMS/trunk/compile_test/Build/mod_grid.o
initial.o: /home/twu27/ROMS/trunk/compile_test/Build/mod_iounits.o
initial.o: /home/twu27/ROMS/trunk/compile_test/Build/mod_ncparam.o
initial.o: /home/twu27/ROMS/trunk/compile_test/Build/mod_nesting.o
initial.o: /home/twu27/ROMS/trunk/compile_test/Build/mod_ocean.o
initial.o: /home/twu27/ROMS/trunk/compile_test/Build/mod_parallel.o
initial.o: /home/twu27/ROMS/trunk/compile_test/Build/mod_param.o
initial.o: /home/twu27/ROMS/trunk/compile_test/Build/mod_scalars.o
initial.o: /home/twu27/ROMS/trunk/compile_test/Build/mod_stepping.o
initial.o: /home/twu27/ROMS/trunk/compile_test/Build/nesting.o
initial.o: /home/twu27/ROMS/trunk/compile_test/Build/omega.o
initial.o: /home/twu27/ROMS/trunk/compile_test/Build/rho_eos.o
initial.o: /home/twu27/ROMS/trunk/compile_test/Build/set_depth.o
initial.o: /home/twu27/ROMS/trunk/compile_test/Build/set_masks.o
initial.o: /home/twu27/ROMS/trunk/compile_test/Build/set_massflux.o
initial.o: /home/twu27/ROMS/trunk/compile_test/Build/stiffness.o
initial.o: /home/twu27/ROMS/trunk/compile_test/Build/strings.o
initial.o: /home/twu27/ROMS/trunk/compile_test/Build/wetdry.o
initial.o: /home/twu27/ROMS/trunk/compile_test/Build/wpoints.o

interp_floats.o: cppdefs.h globaldefs.h
interp_floats.o: /home/twu27/ROMS/trunk/compile_test/Build/mod_floats.o
interp_floats.o: /home/twu27/ROMS/trunk/compile_test/Build/mod_ncparam.o
interp_floats.o: /home/twu27/ROMS/trunk/compile_test/Build/mod_param.o
interp_floats.o: /home/twu27/ROMS/trunk/compile_test/Build/mod_scalars.o

lmd_bkpp.o: set_bounds.h tile.h cppdefs.h globaldefs.h
lmd_bkpp.o: /home/twu27/ROMS/trunk/compile_test/Build/bc_2d.o
lmd_bkpp.o: /home/twu27/ROMS/trunk/compile_test/Build/mod_forces.o
lmd_bkpp.o: /home/twu27/ROMS/trunk/compile_test/Build/mod_grid.o
lmd_bkpp.o: /home/twu27/ROMS/trunk/compile_test/Build/mod_mixing.o
lmd_bkpp.o: /home/twu27/ROMS/trunk/compile_test/Build/mod_ocean.o
lmd_bkpp.o: /home/twu27/ROMS/trunk/compile_test/Build/mod_param.o
lmd_bkpp.o: /home/twu27/ROMS/trunk/compile_test/Build/mod_scalars.o
lmd_bkpp.o: /home/twu27/ROMS/trunk/compile_test/Build/mod_stepping.o
lmd_bkpp.o: /home/twu27/ROMS/trunk/compile_test/Build/mp_exchange.o
lmd_bkpp.o: /home/twu27/ROMS/trunk/compile_test/Build/shapiro.o

lmd_skpp.o: set_bounds.h tile.h cppdefs.h globaldefs.h
lmd_skpp.o: /home/twu27/ROMS/trunk/compile_test/Build/bc_2d.o
lmd_skpp.o: /home/twu27/ROMS/trunk/compile_test/Build/mod_forces.o
lmd_skpp.o: /home/twu27/ROMS/trunk/compile_test/Build/mod_grid.o
lmd_skpp.o: /home/twu27/ROMS/trunk/compile_test/Build/mod_mixing.o
lmd_skpp.o: /home/twu27/ROMS/trunk/compile_test/Build/mod_ocean.o
lmd_skpp.o: /home/twu27/ROMS/trunk/compile_test/Build/mod_param.o
lmd_skpp.o: /home/twu27/ROMS/trunk/compile_test/Build/mod_scalars.o
lmd_skpp.o: /home/twu27/ROMS/trunk/compile_test/Build/mod_stepping.o
lmd_skpp.o: /home/twu27/ROMS/trunk/compile_test/Build/mp_exchange.o
lmd_skpp.o: /home/twu27/ROMS/trunk/compile_test/Build/shapiro.o

lmd_swfrac.o: set_bounds.h cppdefs.h globaldefs.h
lmd_swfrac.o: /home/twu27/ROMS/trunk/compile_test/Build/mod_mixing.o
lmd_swfrac.o: /home/twu27/ROMS/trunk/compile_test/Build/mod_param.o
lmd_swfrac.o: /home/twu27/ROMS/trunk/compile_test/Build/mod_scalars.o

lmd_vmix.o: set_bounds.h tile.h cppdefs.h globaldefs.h
lmd_vmix.o: /home/twu27/ROMS/trunk/compile_test/Build/bc_3d.o
lmd_vmix.o: /home/twu27/ROMS/trunk/compile_test/Build/lmd_bkpp.o
lmd_vmix.o: /home/twu27/ROMS/trunk/compile_test/Build/lmd_skpp.o
lmd_vmix.o: /home/twu27/ROMS/trunk/compile_test/Build/mod_grid.o
lmd_vmix.o: /home/twu27/ROMS/trunk/compile_test/Build/mod_mixing.o
lmd_vmix.o: /home/twu27/ROMS/trunk/compile_test/Build/mod_ocean.o
lmd_vmix.o: /home/twu27/ROMS/trunk/compile_test/Build/mod_param.o
lmd_vmix.o: /home/twu27/ROMS/trunk/compile_test/Build/mod_scalars.o
lmd_vmix.o: /home/twu27/ROMS/trunk/compile_test/Build/mod_stepping.o
lmd_vmix.o: /home/twu27/ROMS/trunk/compile_test/Build/mp_exchange.o

main2d.o: cppdefs.h globaldefs.h
main2d.o: /home/twu27/ROMS/trunk/compile_test/Build/coupler.o
main2d.o: /home/twu27/ROMS/trunk/compile_test/Build/dateclock.o
main2d.o: /home/twu27/ROMS/trunk/compile_test/Build/diag.o
main2d.o: /home/twu27/ROMS/trunk/compile_test/Build/dotproduct.o
main2d.o: /home/twu27/ROMS/trunk/compile_test/Build/forcing.o
main2d.o: /home/twu27/ROMS/trunk/compile_test/Build/frc_adjust.o
main2d.o: /home/twu27/ROMS/trunk/compile_test/Build/ini_fields.o
main2d.o: /home/twu27/ROMS/trunk/compile_test/Build/mod_coupler.o
main2d.o: /home/twu27/ROMS/trunk/compile_test/Build/mod_iounits.o
main2d.o: /home/twu27/ROMS/trunk/compile_test/Build/mod_nesting.o
main2d.o: /home/twu27/ROMS/trunk/compile_test/Build/mod_parallel.o
main2d.o: /home/twu27/ROMS/trunk/compile_test/Build/mod_param.o
main2d.o: /home/twu27/ROMS/trunk/compile_test/Build/mod_scalars.o
main2d.o: /home/twu27/ROMS/trunk/compile_test/Build/mod_stepping.o
main2d.o: /home/twu27/ROMS/trunk/compile_test/Build/nesting.o
main2d.o: /home/twu27/ROMS/trunk/compile_test/Build/obc_adjust.o
main2d.o: /home/twu27/ROMS/trunk/compile_test/Build/radiation_stress.o
main2d.o: /home/twu27/ROMS/trunk/compile_test/Build/set_avg.o
main2d.o: /home/twu27/ROMS/trunk/compile_test/Build/set_tides.o
main2d.o: /home/twu27/ROMS/trunk/compile_test/Build/set_vbc.o
main2d.o: /home/twu27/ROMS/trunk/compile_test/Build/step2d.o
main2d.o: /home/twu27/ROMS/trunk/compile_test/Build/step_floats.o
main2d.o: /home/twu27/ROMS/trunk/compile_test/Build/strings.o

main3d.o: cppdefs.h globaldefs.h
main3d.o: /home/twu27/ROMS/trunk/compile_test/Build/analytical.o
main3d.o: /home/twu27/ROMS/trunk/compile_test/Build/bbl.o
main3d.o: /home/twu27/ROMS/trunk/compile_test/Build/biology.o
main3d.o: /home/twu27/ROMS/trunk/compile_test/Build/bulk_flux.o
main3d.o: /home/twu27/ROMS/trunk/compile_test/Build/bvf_mix.o
main3d.o: /home/twu27/ROMS/trunk/compile_test/Build/coupler.o
main3d.o: /home/twu27/ROMS/trunk/compile_test/Build/dateclock.o
main3d.o: /home/twu27/ROMS/trunk/compile_test/Build/diag.o
main3d.o: /home/twu27/ROMS/trunk/compile_test/Build/dotproduct.o
main3d.o: /home/twu27/ROMS/trunk/compile_test/Build/forcing.o
main3d.o: /home/twu27/ROMS/trunk/compile_test/Build/frc_adjust.o
main3d.o: /home/twu27/ROMS/trunk/compile_test/Build/gls_corstep.o
main3d.o: /home/twu27/ROMS/trunk/compile_test/Build/gls_prestep.o
main3d.o: /home/twu27/ROMS/trunk/compile_test/Build/hmixing.o
main3d.o: /home/twu27/ROMS/trunk/compile_test/Build/ini_fields.o
main3d.o: /home/twu27/ROMS/trunk/compile_test/Build/lmd_vmix.o
main3d.o: /home/twu27/ROMS/trunk/compile_test/Build/mod_coupler.o
main3d.o: /home/twu27/ROMS/trunk/compile_test/Build/mod_iounits.o
main3d.o: /home/twu27/ROMS/trunk/compile_test/Build/mod_nesting.o
main3d.o: /home/twu27/ROMS/trunk/compile_test/Build/mod_parallel.o
main3d.o: /home/twu27/ROMS/trunk/compile_test/Build/mod_param.o
main3d.o: /home/twu27/ROMS/trunk/compile_test/Build/mod_scalars.o
main3d.o: /home/twu27/ROMS/trunk/compile_test/Build/mod_stepping.o
main3d.o: /home/twu27/ROMS/trunk/compile_test/Build/my25_corstep.o
main3d.o: /home/twu27/ROMS/trunk/compile_test/Build/my25_prestep.o
main3d.o: /home/twu27/ROMS/trunk/compile_test/Build/nesting.o
main3d.o: /home/twu27/ROMS/trunk/compile_test/Build/obc_adjust.o
main3d.o: /home/twu27/ROMS/trunk/compile_test/Build/omega.o
main3d.o: /home/twu27/ROMS/trunk/compile_test/Build/radiation_stress.o
main3d.o: /home/twu27/ROMS/trunk/compile_test/Build/rho_eos.o
main3d.o: /home/twu27/ROMS/trunk/compile_test/Build/rhs3d.o
main3d.o: /home/twu27/ROMS/trunk/compile_test/Build/sediment.o
main3d.o: /home/twu27/ROMS/trunk/compile_test/Build/set_avg.o
main3d.o: /home/twu27/ROMS/trunk/compile_test/Build/set_depth.o
main3d.o: /home/twu27/ROMS/trunk/compile_test/Build/set_massflux.o
main3d.o: /home/twu27/ROMS/trunk/compile_test/Build/set_tides.o
main3d.o: /home/twu27/ROMS/trunk/compile_test/Build/set_vbc.o
main3d.o: /home/twu27/ROMS/trunk/compile_test/Build/set_zeta.o
main3d.o: /home/twu27/ROMS/trunk/compile_test/Build/step2d.o
main3d.o: /home/twu27/ROMS/trunk/compile_test/Build/step3d_t.o
main3d.o: /home/twu27/ROMS/trunk/compile_test/Build/step3d_uv.o
main3d.o: /home/twu27/ROMS/trunk/compile_test/Build/step_floats.o
main3d.o: /home/twu27/ROMS/trunk/compile_test/Build/strings.o
main3d.o: /home/twu27/ROMS/trunk/compile_test/Build/wvelocity.o

mpdata_adiff.o: set_bounds.h cppdefs.h globaldefs.h
mpdata_adiff.o: /home/twu27/ROMS/trunk/compile_test/Build/mod_ncparam.o
mpdata_adiff.o: /home/twu27/ROMS/trunk/compile_test/Build/mod_param.o
mpdata_adiff.o: /home/twu27/ROMS/trunk/compile_test/Build/mod_scalars.o

my25_corstep.o: set_bounds.h tile.h cppdefs.h globaldefs.h
my25_corstep.o: /home/twu27/ROMS/trunk/compile_test/Build/exchange_3d.o
my25_corstep.o: /home/twu27/ROMS/trunk/compile_test/Build/mod_forces.o
my25_corstep.o: /home/twu27/ROMS/trunk/compile_test/Build/mod_grid.o
my25_corstep.o: /home/twu27/ROMS/trunk/compile_test/Build/mod_mixing.o
my25_corstep.o: /home/twu27/ROMS/trunk/compile_test/Build/mod_ncparam.o
my25_corstep.o: /home/twu27/ROMS/trunk/compile_test/Build/mod_ocean.o
my25_corstep.o: /home/twu27/ROMS/trunk/compile_test/Build/mod_param.o
my25_corstep.o: /home/twu27/ROMS/trunk/compile_test/Build/mod_scalars.o
my25_corstep.o: /home/twu27/ROMS/trunk/compile_test/Build/mod_stepping.o
my25_corstep.o: /home/twu27/ROMS/trunk/compile_test/Build/mp_exchange.o
my25_corstep.o: /home/twu27/ROMS/trunk/compile_test/Build/tkebc_im.o

my25_prestep.o: set_bounds.h tile.h cppdefs.h globaldefs.h
my25_prestep.o: /home/twu27/ROMS/trunk/compile_test/Build/exchange_3d.o
my25_prestep.o: /home/twu27/ROMS/trunk/compile_test/Build/mod_grid.o
my25_prestep.o: /home/twu27/ROMS/trunk/compile_test/Build/mod_mixing.o
my25_prestep.o: /home/twu27/ROMS/trunk/compile_test/Build/mod_ncparam.o
my25_prestep.o: /home/twu27/ROMS/trunk/compile_test/Build/mod_ocean.o
my25_prestep.o: /home/twu27/ROMS/trunk/compile_test/Build/mod_param.o
my25_prestep.o: /home/twu27/ROMS/trunk/compile_test/Build/mod_scalars.o
my25_prestep.o: /home/twu27/ROMS/trunk/compile_test/Build/mod_stepping.o
my25_prestep.o: /home/twu27/ROMS/trunk/compile_test/Build/mp_exchange.o
my25_prestep.o: /home/twu27/ROMS/trunk/compile_test/Build/tkebc_im.o

nesting.o: set_bounds.h tile.h cppdefs.h globaldefs.h
nesting.o: /home/twu27/ROMS/trunk/compile_test/Build/distribute.o
nesting.o: /home/twu27/ROMS/trunk/compile_test/Build/exchange_2d.o
nesting.o: /home/twu27/ROMS/trunk/compile_test/Build/exchange_3d.o
nesting.o: /home/twu27/ROMS/trunk/compile_test/Build/mod_clima.o
nesting.o: /home/twu27/ROMS/trunk/compile_test/Build/mod_coupling.o
nesting.o: /home/twu27/ROMS/trunk/compile_test/Build/mod_forces.o
nesting.o: /home/twu27/ROMS/trunk/compile_test/Build/mod_grid.o
nesting.o: /home/twu27/ROMS/trunk/compile_test/Build/mod_iounits.o
nesting.o: /home/twu27/ROMS/trunk/compile_test/Build/mod_ncparam.o
nesting.o: /home/twu27/ROMS/trunk/compile_test/Build/mod_nesting.o
nesting.o: /home/twu27/ROMS/trunk/compile_test/Build/mod_ocean.o
nesting.o: /home/twu27/ROMS/trunk/compile_test/Build/mod_parallel.o
nesting.o: /home/twu27/ROMS/trunk/compile_test/Build/mod_param.o
nesting.o: /home/twu27/ROMS/trunk/compile_test/Build/mod_scalars.o
nesting.o: /home/twu27/ROMS/trunk/compile_test/Build/mod_stepping.o
nesting.o: /home/twu27/ROMS/trunk/compile_test/Build/mp_exchange.o
nesting.o: /home/twu27/ROMS/trunk/compile_test/Build/set_depth.o
nesting.o: /home/twu27/ROMS/trunk/compile_test/Build/strings.o

obc_adjust.o: set_bounds.h tile.h cppdefs.h globaldefs.h
obc_adjust.o: /home/twu27/ROMS/trunk/compile_test/Build/mod_boundary.o
obc_adjust.o: /home/twu27/ROMS/trunk/compile_test/Build/mod_ncparam.o
obc_adjust.o: /home/twu27/ROMS/trunk/compile_test/Build/mod_param.o
obc_adjust.o: /home/twu27/ROMS/trunk/compile_test/Build/mod_scalars.o

obc_volcons.o: set_bounds.h tile.h cppdefs.h globaldefs.h
obc_volcons.o: /home/twu27/ROMS/trunk/compile_test/Build/distribute.o
obc_volcons.o: /home/twu27/ROMS/trunk/compile_test/Build/mod_grid.o
obc_volcons.o: /home/twu27/ROMS/trunk/compile_test/Build/mod_ocean.o
obc_volcons.o: /home/twu27/ROMS/trunk/compile_test/Build/mod_parallel.o
obc_volcons.o: /home/twu27/ROMS/trunk/compile_test/Build/mod_param.o
obc_volcons.o: /home/twu27/ROMS/trunk/compile_test/Build/mod_scalars.o
obc_volcons.o: /home/twu27/ROMS/trunk/compile_test/Build/mp_exchange.o

omega.o: set_bounds.h tile.h cppdefs.h globaldefs.h
omega.o: /home/twu27/ROMS/trunk/compile_test/Build/bc_3d.o
omega.o: /home/twu27/ROMS/trunk/compile_test/Build/exchange_3d.o
omega.o: /home/twu27/ROMS/trunk/compile_test/Build/mod_grid.o
omega.o: /home/twu27/ROMS/trunk/compile_test/Build/mod_ncparam.o
omega.o: /home/twu27/ROMS/trunk/compile_test/Build/mod_ocean.o
omega.o: /home/twu27/ROMS/trunk/compile_test/Build/mod_param.o
omega.o: /home/twu27/ROMS/trunk/compile_test/Build/mod_scalars.o
omega.o: /home/twu27/ROMS/trunk/compile_test/Build/mod_sedbed.o
omega.o: /home/twu27/ROMS/trunk/compile_test/Build/mod_sources.o
omega.o: /home/twu27/ROMS/trunk/compile_test/Build/mod_stepping.o
omega.o: /home/twu27/ROMS/trunk/compile_test/Build/mp_exchange.o

output.o: cppdefs.h globaldefs.h
output.o: /home/twu27/ROMS/trunk/compile_test/Build/distribute.o
output.o: /home/twu27/ROMS/trunk/compile_test/Build/mod_floats.o
output.o: /home/twu27/ROMS/trunk/compile_test/Build/mod_fourdvar.o
output.o: /home/twu27/ROMS/trunk/compile_test/Build/mod_iounits.o
output.o: /home/twu27/ROMS/trunk/compile_test/Build/mod_ncparam.o
output.o: /home/twu27/ROMS/trunk/compile_test/Build/mod_netcdf.o
output.o: /home/twu27/ROMS/trunk/compile_test/Build/mod_parallel.o
output.o: /home/twu27/ROMS/trunk/compile_test/Build/mod_param.o
output.o: /home/twu27/ROMS/trunk/compile_test/Build/mod_scalars.o
output.o: /home/twu27/ROMS/trunk/compile_test/Build/strings.o

pre_step3d.o: set_bounds.h tile.h cppdefs.h globaldefs.h
pre_step3d.o: /home/twu27/ROMS/trunk/compile_test/Build/exchange_3d.o
pre_step3d.o: /home/twu27/ROMS/trunk/compile_test/Build/mod_diags.o
pre_step3d.o: /home/twu27/ROMS/trunk/compile_test/Build/mod_forces.o
pre_step3d.o: /home/twu27/ROMS/trunk/compile_test/Build/mod_grid.o
pre_step3d.o: /home/twu27/ROMS/trunk/compile_test/Build/mod_mixing.o
pre_step3d.o: /home/twu27/ROMS/trunk/compile_test/Build/mod_ocean.o
pre_step3d.o: /home/twu27/ROMS/trunk/compile_test/Build/mod_param.o
pre_step3d.o: /home/twu27/ROMS/trunk/compile_test/Build/mod_scalars.o
pre_step3d.o: /home/twu27/ROMS/trunk/compile_test/Build/mod_sources.o
pre_step3d.o: /home/twu27/ROMS/trunk/compile_test/Build/mod_stepping.o
pre_step3d.o: /home/twu27/ROMS/trunk/compile_test/Build/mp_exchange.o
pre_step3d.o: /home/twu27/ROMS/trunk/compile_test/Build/t3dbc_im.o

prsgrd.o: prsgrd32.h set_bounds.h tile.h prsgrd31.h prsgrd42.h prsgrd40.h
prsgrd.o: prsgrd44.h cppdefs.h globaldefs.h
prsgrd.o: /home/twu27/ROMS/trunk/compile_test/Build/mod_diags.o
prsgrd.o: /home/twu27/ROMS/trunk/compile_test/Build/mod_forces.o
prsgrd.o: /home/twu27/ROMS/trunk/compile_test/Build/mod_grid.o
prsgrd.o: /home/twu27/ROMS/trunk/compile_test/Build/mod_ocean.o
prsgrd.o: /home/twu27/ROMS/trunk/compile_test/Build/mod_param.o
prsgrd.o: /home/twu27/ROMS/trunk/compile_test/Build/mod_scalars.o
prsgrd.o: /home/twu27/ROMS/trunk/compile_test/Build/mod_stepping.o

radiation_stress.o: nearshore_mellor08.h set_bounds.h tile.h
radiation_stress.o: nearshore_mellor05.h cppdefs.h globaldefs.h
radiation_stress.o: /home/twu27/ROMS/trunk/compile_test/Build/bc_2d.o
radiation_stress.o: /home/twu27/ROMS/trunk/compile_test/Build/bc_3d.o
radiation_stress.o: /home/twu27/ROMS/trunk/compile_test/Build/exchange_2d.o
radiation_stress.o: /home/twu27/ROMS/trunk/compile_test/Build/exchange_3d.o
radiation_stress.o: /home/twu27/ROMS/trunk/compile_test/Build/mod_coupling.o
radiation_stress.o: /home/twu27/ROMS/trunk/compile_test/Build/mod_diags.o
radiation_stress.o: /home/twu27/ROMS/trunk/compile_test/Build/mod_forces.o
radiation_stress.o: /home/twu27/ROMS/trunk/compile_test/Build/mod_grid.o
radiation_stress.o: /home/twu27/ROMS/trunk/compile_test/Build/mod_mixing.o
radiation_stress.o: /home/twu27/ROMS/trunk/compile_test/Build/mod_ocean.o
radiation_stress.o: /home/twu27/ROMS/trunk/compile_test/Build/mod_param.o
radiation_stress.o: /home/twu27/ROMS/trunk/compile_test/Build/mod_scalars.o
radiation_stress.o: /home/twu27/ROMS/trunk/compile_test/Build/mod_stepping.o
radiation_stress.o: /home/twu27/ROMS/trunk/compile_test/Build/mp_exchange.o

rho_eos.o: set_bounds.h tile.h cppdefs.h globaldefs.h
rho_eos.o: /home/twu27/ROMS/trunk/compile_test/Build/exchange_2d.o
rho_eos.o: /home/twu27/ROMS/trunk/compile_test/Build/exchange_3d.o
rho_eos.o: /home/twu27/ROMS/trunk/compile_test/Build/mod_clima.o
rho_eos.o: /home/twu27/ROMS/trunk/compile_test/Build/mod_coupling.o
rho_eos.o: /home/twu27/ROMS/trunk/compile_test/Build/mod_eoscoef.o
rho_eos.o: /home/twu27/ROMS/trunk/compile_test/Build/mod_grid.o
rho_eos.o: /home/twu27/ROMS/trunk/compile_test/Build/mod_mixing.o
rho_eos.o: /home/twu27/ROMS/trunk/compile_test/Build/mod_ncparam.o
rho_eos.o: /home/twu27/ROMS/trunk/compile_test/Build/mod_ocean.o
rho_eos.o: /home/twu27/ROMS/trunk/compile_test/Build/mod_param.o
rho_eos.o: /home/twu27/ROMS/trunk/compile_test/Build/mod_scalars.o
rho_eos.o: /home/twu27/ROMS/trunk/compile_test/Build/mod_sediment.o
rho_eos.o: /home/twu27/ROMS/trunk/compile_test/Build/mod_stepping.o
rho_eos.o: /home/twu27/ROMS/trunk/compile_test/Build/mp_exchange.o

rhs3d.o: set_bounds.h tile.h cppdefs.h globaldefs.h
rhs3d.o: /home/twu27/ROMS/trunk/compile_test/Build/mod_clima.o
rhs3d.o: /home/twu27/ROMS/trunk/compile_test/Build/mod_coupling.o
rhs3d.o: /home/twu27/ROMS/trunk/compile_test/Build/mod_diags.o
rhs3d.o: /home/twu27/ROMS/trunk/compile_test/Build/mod_forces.o
rhs3d.o: /home/twu27/ROMS/trunk/compile_test/Build/mod_grid.o
rhs3d.o: /home/twu27/ROMS/trunk/compile_test/Build/mod_mixing.o
rhs3d.o: /home/twu27/ROMS/trunk/compile_test/Build/mod_ocean.o
rhs3d.o: /home/twu27/ROMS/trunk/compile_test/Build/mod_param.o
rhs3d.o: /home/twu27/ROMS/trunk/compile_test/Build/mod_scalars.o
rhs3d.o: /home/twu27/ROMS/trunk/compile_test/Build/mod_stepping.o
rhs3d.o: /home/twu27/ROMS/trunk/compile_test/Build/pre_step3d.o
rhs3d.o: /home/twu27/ROMS/trunk/compile_test/Build/prsgrd.o
rhs3d.o: /home/twu27/ROMS/trunk/compile_test/Build/t3dmix.o
rhs3d.o: /home/twu27/ROMS/trunk/compile_test/Build/uv3dmix.o

set_avg.o: set_bounds.h tile.h cppdefs.h globaldefs.h
set_avg.o: /home/twu27/ROMS/trunk/compile_test/Build/exchange_2d.o
set_avg.o: /home/twu27/ROMS/trunk/compile_test/Build/exchange_3d.o
set_avg.o: /home/twu27/ROMS/trunk/compile_test/Build/mod_average.o
set_avg.o: /home/twu27/ROMS/trunk/compile_test/Build/mod_coupling.o
set_avg.o: /home/twu27/ROMS/trunk/compile_test/Build/mod_forces.o
set_avg.o: /home/twu27/ROMS/trunk/compile_test/Build/mod_grid.o
set_avg.o: /home/twu27/ROMS/trunk/compile_test/Build/mod_mixing.o
set_avg.o: /home/twu27/ROMS/trunk/compile_test/Build/mod_ncparam.o
set_avg.o: /home/twu27/ROMS/trunk/compile_test/Build/mod_ocean.o
set_avg.o: /home/twu27/ROMS/trunk/compile_test/Build/mod_param.o
set_avg.o: /home/twu27/ROMS/trunk/compile_test/Build/mod_scalars.o
set_avg.o: /home/twu27/ROMS/trunk/compile_test/Build/mod_sedbed.o
set_avg.o: /home/twu27/ROMS/trunk/compile_test/Build/mod_sediment.o
set_avg.o: /home/twu27/ROMS/trunk/compile_test/Build/mod_stepping.o
set_avg.o: /home/twu27/ROMS/trunk/compile_test/Build/mod_tides.o
set_avg.o: /home/twu27/ROMS/trunk/compile_test/Build/mp_exchange.o
set_avg.o: /home/twu27/ROMS/trunk/compile_test/Build/set_masks.o
set_avg.o: /home/twu27/ROMS/trunk/compile_test/Build/uv_rotate.o
set_avg.o: /home/twu27/ROMS/trunk/compile_test/Build/vorticity.o

set_data.o: set_bounds.h tile.h cppdefs.h globaldefs.h
set_data.o: /home/twu27/ROMS/trunk/compile_test/Build/analytical.o
set_data.o: /home/twu27/ROMS/trunk/compile_test/Build/distribute.o
set_data.o: /home/twu27/ROMS/trunk/compile_test/Build/exchange_2d.o
set_data.o: /home/twu27/ROMS/trunk/compile_test/Build/mod_biology.o
set_data.o: /home/twu27/ROMS/trunk/compile_test/Build/mod_boundary.o
set_data.o: /home/twu27/ROMS/trunk/compile_test/Build/mod_clima.o
set_data.o: /home/twu27/ROMS/trunk/compile_test/Build/mod_forces.o
set_data.o: /home/twu27/ROMS/trunk/compile_test/Build/mod_grid.o
set_data.o: /home/twu27/ROMS/trunk/compile_test/Build/mod_mixing.o
set_data.o: /home/twu27/ROMS/trunk/compile_test/Build/mod_ncparam.o
set_data.o: /home/twu27/ROMS/trunk/compile_test/Build/mod_ocean.o
set_data.o: /home/twu27/ROMS/trunk/compile_test/Build/mod_param.o
set_data.o: /home/twu27/ROMS/trunk/compile_test/Build/mod_scalars.o
set_data.o: /home/twu27/ROMS/trunk/compile_test/Build/mod_sources.o
set_data.o: /home/twu27/ROMS/trunk/compile_test/Build/mod_stepping.o
set_data.o: /home/twu27/ROMS/trunk/compile_test/Build/mp_exchange.o
set_data.o: /home/twu27/ROMS/trunk/compile_test/Build/set_2dfld.o
set_data.o: /home/twu27/ROMS/trunk/compile_test/Build/set_3dfld.o
set_data.o: /home/twu27/ROMS/trunk/compile_test/Build/strings.o

set_depth.o: set_bounds.h tile.h cppdefs.h globaldefs.h
set_depth.o: /home/twu27/ROMS/trunk/compile_test/Build/exchange_2d.o
set_depth.o: /home/twu27/ROMS/trunk/compile_test/Build/exchange_3d.o
set_depth.o: /home/twu27/ROMS/trunk/compile_test/Build/mod_boundary.o
set_depth.o: /home/twu27/ROMS/trunk/compile_test/Build/mod_coupling.o
set_depth.o: /home/twu27/ROMS/trunk/compile_test/Build/mod_grid.o
set_depth.o: /home/twu27/ROMS/trunk/compile_test/Build/mod_ncparam.o
set_depth.o: /home/twu27/ROMS/trunk/compile_test/Build/mod_ocean.o
set_depth.o: /home/twu27/ROMS/trunk/compile_test/Build/mod_param.o
set_depth.o: /home/twu27/ROMS/trunk/compile_test/Build/mod_scalars.o
set_depth.o: /home/twu27/ROMS/trunk/compile_test/Build/mod_sedbed.o
set_depth.o: /home/twu27/ROMS/trunk/compile_test/Build/mod_stepping.o
set_depth.o: /home/twu27/ROMS/trunk/compile_test/Build/mp_exchange.o

set_massflux.o: set_bounds.h tile.h cppdefs.h globaldefs.h
set_massflux.o: /home/twu27/ROMS/trunk/compile_test/Build/exchange_3d.o
set_massflux.o: /home/twu27/ROMS/trunk/compile_test/Build/mod_coupling.o
set_massflux.o: /home/twu27/ROMS/trunk/compile_test/Build/mod_grid.o
set_massflux.o: /home/twu27/ROMS/trunk/compile_test/Build/mod_ocean.o
set_massflux.o: /home/twu27/ROMS/trunk/compile_test/Build/mod_param.o
set_massflux.o: /home/twu27/ROMS/trunk/compile_test/Build/mod_scalars.o
set_massflux.o: /home/twu27/ROMS/trunk/compile_test/Build/mod_stepping.o
set_massflux.o: /home/twu27/ROMS/trunk/compile_test/Build/mp_exchange.o

set_tides.o: set_bounds.h tile.h cppdefs.h globaldefs.h
set_tides.o: /home/twu27/ROMS/trunk/compile_test/Build/distribute.o
set_tides.o: /home/twu27/ROMS/trunk/compile_test/Build/exchange_2d.o
set_tides.o: /home/twu27/ROMS/trunk/compile_test/Build/mod_boundary.o
set_tides.o: /home/twu27/ROMS/trunk/compile_test/Build/mod_clima.o
set_tides.o: /home/twu27/ROMS/trunk/compile_test/Build/mod_grid.o
set_tides.o: /home/twu27/ROMS/trunk/compile_test/Build/mod_ncparam.o
set_tides.o: /home/twu27/ROMS/trunk/compile_test/Build/mod_param.o
[...]
wrt_his.o: /home/twu27/ROMS/trunk/compile_test/Build/nf_fwrite3d_bry.o
wrt_his.o: /home/twu27/ROMS/trunk/compile_test/Build/omega.o
wrt_his.o: /home/twu27/ROMS/trunk/compile_test/Build/strings.o
wrt_his.o: /home/twu27/ROMS/trunk/compile_test/Build/uv_rotate.o

wrt_impulse.o: set_bounds.h cppdefs.h globaldefs.h
wrt_impulse.o: /home/twu27/ROMS/trunk/compile_test/Build/mod_grid.o
wrt_impulse.o: /home/twu27/ROMS/trunk/compile_test/Build/mod_iounits.o
wrt_impulse.o: /home/twu27/ROMS/trunk/compile_test/Build/mod_ncparam.o
wrt_impulse.o: /home/twu27/ROMS/trunk/compile_test/Build/mod_netcdf.o
wrt_impulse.o: /home/twu27/ROMS/trunk/compile_test/Build/mod_ocean.o
wrt_impulse.o: /home/twu27/ROMS/trunk/compile_test/Build/mod_parallel.o
wrt_impulse.o: /home/twu27/ROMS/trunk/compile_test/Build/mod_param.o
wrt_impulse.o: /home/twu27/ROMS/trunk/compile_test/Build/mod_scalars.o
wrt_impulse.o: /home/twu27/ROMS/trunk/compile_test/Build/nf_fread2d.o
wrt_impulse.o: /home/twu27/ROMS/trunk/compile_test/Build/nf_fread3d.o
wrt_impulse.o: /home/twu27/ROMS/trunk/compile_test/Build/nf_fwrite2d.o
wrt_impulse.o: /home/twu27/ROMS/trunk/compile_test/Build/nf_fwrite3d.o
wrt_impulse.o: /home/twu27/ROMS/trunk/compile_test/Build/strings.o

wrt_info.o: sediment_wrt.h npzd_Powell_wrt.h fennel_wrt.h red_tide_wrt.h
wrt_info.o: npzd_iron_wrt.h oyster_floats_wrt.h npzd_Franks_wrt.h ecosim_wrt.h
wrt_info.o: cppdefs.h globaldefs.h nemuro_wrt.h hypoxia_srm_wrt.h
wrt_info.o: /home/twu27/ROMS/trunk/compile_test/Build/distribute.o
wrt_info.o: /home/twu27/ROMS/trunk/compile_test/Build/extract_sta.o
wrt_info.o: /home/twu27/ROMS/trunk/compile_test/Build/mod_behavior.o
wrt_info.o: /home/twu27/ROMS/trunk/compile_test/Build/mod_biology.o
wrt_info.o: /home/twu27/ROMS/trunk/compile_test/Build/mod_eclight.o
wrt_info.o: /home/twu27/ROMS/trunk/compile_test/Build/mod_fourdvar.o
wrt_info.o: /home/twu27/ROMS/trunk/compile_test/Build/mod_grid.o
wrt_info.o: /home/twu27/ROMS/trunk/compile_test/Build/mod_iounits.o
wrt_info.o: /home/twu27/ROMS/trunk/compile_test/Build/mod_ncparam.o
wrt_info.o: /home/twu27/ROMS/trunk/compile_test/Build/mod_netcdf.o
wrt_info.o: /home/twu27/ROMS/trunk/compile_test/Build/mod_parallel.o
wrt_info.o: /home/twu27/ROMS/trunk/compile_test/Build/mod_param.o
wrt_info.o: /home/twu27/ROMS/trunk/compile_test/Build/mod_scalars.o
wrt_info.o: /home/twu27/ROMS/trunk/compile_test/Build/mod_sediment.o
wrt_info.o: /home/twu27/ROMS/trunk/compile_test/Build/mod_sources.o
wrt_info.o: /home/twu27/ROMS/trunk/compile_test/Build/mod_storage.o
wrt_info.o: /home/twu27/ROMS/trunk/compile_test/Build/nf_fwrite2d.o
wrt_info.o: /home/twu27/ROMS/trunk/compile_test/Build/strings.o

wrt_ini.o: cppdefs.h globaldefs.h
wrt_ini.o: /home/twu27/ROMS/trunk/compile_test/Build/mod_boundary.o
wrt_ini.o: /home/twu27/ROMS/trunk/compile_test/Build/mod_forces.o
wrt_ini.o: /home/twu27/ROMS/trunk/compile_test/Build/mod_fourdvar.o
wrt_ini.o: /home/twu27/ROMS/trunk/compile_test/Build/mod_grid.o
wrt_ini.o: /home/twu27/ROMS/trunk/compile_test/Build/mod_iounits.o
wrt_ini.o: /home/twu27/ROMS/trunk/compile_test/Build/mod_mixing.o
wrt_ini.o: /home/twu27/ROMS/trunk/compile_test/Build/mod_ncparam.o
wrt_ini.o: /home/twu27/ROMS/trunk/compile_test/Build/mod_netcdf.o
wrt_ini.o: /home/twu27/ROMS/trunk/compile_test/Build/mod_ocean.o
wrt_ini.o: /home/twu27/ROMS/trunk/compile_test/Build/mod_parallel.o
wrt_ini.o: /home/twu27/ROMS/trunk/compile_test/Build/mod_param.o
wrt_ini.o: /home/twu27/ROMS/trunk/compile_test/Build/mod_scalars.o
wrt_ini.o: /home/twu27/ROMS/trunk/compile_test/Build/mod_sediment.o
wrt_ini.o: /home/twu27/ROMS/trunk/compile_test/Build/mod_stepping.o
wrt_ini.o: /home/twu27/ROMS/trunk/compile_test/Build/nf_fwrite2d.o
wrt_ini.o: /home/twu27/ROMS/trunk/compile_test/Build/nf_fwrite2d_bry.o
wrt_ini.o: /home/twu27/ROMS/trunk/compile_test/Build/nf_fwrite3d.o
wrt_ini.o: /home/twu27/ROMS/trunk/compile_test/Build/nf_fwrite3d_bry.o
wrt_ini.o: /home/twu27/ROMS/trunk/compile_test/Build/strings.o

wrt_quick.o: set_bounds.h cppdefs.h globaldefs.h
wrt_quick.o: /home/twu27/ROMS/trunk/compile_test/Build/mod_bbl.o
wrt_quick.o: /home/twu27/ROMS/trunk/compile_test/Build/mod_coupling.o
wrt_quick.o: /home/twu27/ROMS/trunk/compile_test/Build/mod_forces.o
wrt_quick.o: /home/twu27/ROMS/trunk/compile_test/Build/mod_grid.o
wrt_quick.o: /home/twu27/ROMS/trunk/compile_test/Build/mod_iounits.o
wrt_quick.o: /home/twu27/ROMS/trunk/compile_test/Build/mod_mixing.o
wrt_quick.o: /home/twu27/ROMS/trunk/compile_test/Build/mod_ncparam.o
wrt_quick.o: /home/twu27/ROMS/trunk/compile_test/Build/mod_netcdf.o
wrt_quick.o: /home/twu27/ROMS/trunk/compile_test/Build/mod_ocean.o
wrt_quick.o: /home/twu27/ROMS/trunk/compile_test/Build/mod_parallel.o
wrt_quick.o: /home/twu27/ROMS/trunk/compile_test/Build/mod_param.o
wrt_quick.o: /home/twu27/ROMS/trunk/compile_test/Build/mod_scalars.o
wrt_quick.o: /home/twu27/ROMS/trunk/compile_test/Build/mod_sedbed.o
wrt_quick.o: /home/twu27/ROMS/trunk/compile_test/Build/mod_sediment.o
wrt_quick.o: /home/twu27/ROMS/trunk/compile_test/Build/mod_stepping.o
wrt_quick.o: /home/twu27/ROMS/trunk/compile_test/Build/nf_fwrite2d.o
wrt_quick.o: /home/twu27/ROMS/trunk/compile_test/Build/nf_fwrite3d.o
wrt_quick.o: /home/twu27/ROMS/trunk/compile_test/Build/omega.o
wrt_quick.o: /home/twu27/ROMS/trunk/compile_test/Build/strings.o
wrt_quick.o: /home/twu27/ROMS/trunk/compile_test/Build/uv_rotate.o

wrt_rst.o: cppdefs.h globaldefs.h
wrt_rst.o: /home/twu27/ROMS/trunk/compile_test/Build/mod_grid.o
wrt_rst.o: /home/twu27/ROMS/trunk/compile_test/Build/mod_iounits.o
wrt_rst.o: /home/twu27/ROMS/trunk/compile_test/Build/mod_mixing.o
wrt_rst.o: /home/twu27/ROMS/trunk/compile_test/Build/mod_ncparam.o
wrt_rst.o: /home/twu27/ROMS/trunk/compile_test/Build/mod_netcdf.o
wrt_rst.o: /home/twu27/ROMS/trunk/compile_test/Build/mod_ocean.o
wrt_rst.o: /home/twu27/ROMS/trunk/compile_test/Build/mod_parallel.o
wrt_rst.o: /home/twu27/ROMS/trunk/compile_test/Build/mod_param.o
wrt_rst.o: /home/twu27/ROMS/trunk/compile_test/Build/mod_scalars.o
wrt_rst.o: /home/twu27/ROMS/trunk/compile_test/Build/mod_sedbed.o
wrt_rst.o: /home/twu27/ROMS/trunk/compile_test/Build/mod_sediment.o
wrt_rst.o: /home/twu27/ROMS/trunk/compile_test/Build/mod_stepping.o
wrt_rst.o: /home/twu27/ROMS/trunk/compile_test/Build/nf_fwrite2d.o
wrt_rst.o: /home/twu27/ROMS/trunk/compile_test/Build/nf_fwrite3d.o
wrt_rst.o: /home/twu27/ROMS/trunk/compile_test/Build/nf_fwrite4d.o
wrt_rst.o: /home/twu27/ROMS/trunk/compile_test/Build/strings.o

wrt_station.o: cppdefs.h globaldefs.h
wrt_station.o: /home/twu27/ROMS/trunk/compile_test/Build/extract_sta.o
wrt_station.o: /home/twu27/ROMS/trunk/compile_test/Build/mod_bbl.o
wrt_station.o: /home/twu27/ROMS/trunk/compile_test/Build/mod_forces.o
wrt_station.o: /home/twu27/ROMS/trunk/compile_test/Build/mod_grid.o
wrt_station.o: /home/twu27/ROMS/trunk/compile_test/Build/mod_iounits.o
wrt_station.o: /home/twu27/ROMS/trunk/compile_test/Build/mod_mixing.o
wrt_station.o: /home/twu27/ROMS/trunk/compile_test/Build/mod_ncparam.o
wrt_station.o: /home/twu27/ROMS/trunk/compile_test/Build/mod_netcdf.o
wrt_station.o: /home/twu27/ROMS/trunk/compile_test/Build/mod_ocean.o
wrt_station.o: /home/twu27/ROMS/trunk/compile_test/Build/mod_parallel.o
wrt_station.o: /home/twu27/ROMS/trunk/compile_test/Build/mod_param.o
wrt_station.o: /home/twu27/ROMS/trunk/compile_test/Build/mod_scalars.o
wrt_station.o: /home/twu27/ROMS/trunk/compile_test/Build/mod_sedbed.o
wrt_station.o: /home/twu27/ROMS/trunk/compile_test/Build/mod_sediment.o
wrt_station.o: /home/twu27/ROMS/trunk/compile_test/Build/mod_stepping.o
wrt_station.o: /home/twu27/ROMS/trunk/compile_test/Build/strings.o
wrt_station.o: /home/twu27/ROMS/trunk/compile_test/Build/uv_rotate.o

wrt_tides.o: cppdefs.h globaldefs.h
wrt_tides.o: /home/twu27/ROMS/trunk/compile_test/Build/mod_grid.o
wrt_tides.o: /home/twu27/ROMS/trunk/compile_test/Build/mod_iounits.o
wrt_tides.o: /home/twu27/ROMS/trunk/compile_test/Build/mod_ncparam.o
wrt_tides.o: /home/twu27/ROMS/trunk/compile_test/Build/mod_netcdf.o
wrt_tides.o: /home/twu27/ROMS/trunk/compile_test/Build/mod_parallel.o
wrt_tides.o: /home/twu27/ROMS/trunk/compile_test/Build/mod_param.o
wrt_tides.o: /home/twu27/ROMS/trunk/compile_test/Build/mod_scalars.o
wrt_tides.o: /home/twu27/ROMS/trunk/compile_test/Build/mod_stepping.o
wrt_tides.o: /home/twu27/ROMS/trunk/compile_test/Build/mod_tides.o
wrt_tides.o: /home/twu27/ROMS/trunk/compile_test/Build/nf_fwrite3d.o
wrt_tides.o: /home/twu27/ROMS/trunk/compile_test/Build/nf_fwrite4d.o
wrt_tides.o: /home/twu27/ROMS/trunk/compile_test/Build/strings.o

zeta_balance.o: set_bounds.h tile.h cppdefs.h globaldefs.h
zeta_balance.o: /home/twu27/ROMS/trunk/compile_test/Build/distribute.o
zeta_balance.o: /home/twu27/ROMS/trunk/compile_test/Build/exchange_2d.o
zeta_balance.o: /home/twu27/ROMS/trunk/compile_test/Build/exchange_3d.o
zeta_balance.o: /home/twu27/ROMS/trunk/compile_test/Build/mod_coupling.o
zeta_balance.o: /home/twu27/ROMS/trunk/compile_test/Build/mod_fourdvar.o
zeta_balance.o: /home/twu27/ROMS/trunk/compile_test/Build/mod_grid.o
zeta_balance.o: /home/twu27/ROMS/trunk/compile_test/Build/mod_iounits.o
zeta_balance.o: /home/twu27/ROMS/trunk/compile_test/Build/mod_mixing.o
zeta_balance.o: /home/twu27/ROMS/trunk/compile_test/Build/mod_ncparam.o
zeta_balance.o: /home/twu27/ROMS/trunk/compile_test/Build/mod_ocean.o
zeta_balance.o: /home/twu27/ROMS/trunk/compile_test/Build/mod_parallel.o
zeta_balance.o: /home/twu27/ROMS/trunk/compile_test/Build/mod_param.o
zeta_balance.o: /home/twu27/ROMS/trunk/compile_test/Build/mod_scalars.o
zeta_balance.o: /home/twu27/ROMS/trunk/compile_test/Build/mod_stepping.o
zeta_balance.o: /home/twu27/ROMS/trunk/compile_test/Build/mp_exchange.o
zeta_balance.o: /home/twu27/ROMS/trunk/compile_test/Build/rho_eos.o
zeta_balance.o: /home/twu27/ROMS/trunk/compile_test/Build/set_depth.o

/home/twu27/ROMS/trunk/compile_test/Build/analytical_mod.mod: analytical.o
/home/twu27/ROMS/trunk/compile_test/Build/array_modes_mod.mod: array_modes.o
/home/twu27/ROMS/trunk/compile_test/Build/back_cost_mod.mod: back_cost.o
/home/twu27/ROMS/trunk/compile_test/Build/bbl_mod.mod: bbl.o
/home/twu27/ROMS/trunk/compile_test/Build/bc_2d_mod.mod: bc_2d.o
/home/twu27/ROMS/trunk/compile_test/Build/bc_3d_mod.mod: bc_3d.o
/home/twu27/ROMS/trunk/compile_test/Build/bc_4d_mod.mod: bc_4d.o
/home/twu27/ROMS/trunk/compile_test/Build/bc_bry2d_mod.mod: bc_bry2d.o
/home/twu27/ROMS/trunk/compile_test/Build/bc_bry3d_mod.mod: bc_bry3d.o
/home/twu27/ROMS/trunk/compile_test/Build/biology_floats_mod.mod: biology_floats.o
/home/twu27/ROMS/trunk/compile_test/Build/biology_mod.mod: biology.o
/home/twu27/ROMS/trunk/compile_test/Build/bulk_flux_mod.mod: bulk_flux.o
/home/twu27/ROMS/trunk/compile_test/Build/bvf_mix_mod.mod: bvf_mix.o
/home/twu27/ROMS/trunk/compile_test/Build/cgradient_mod.mod: cgradient.o
/home/twu27/ROMS/trunk/compile_test/Build/comp_jb0_mod.mod: comp_Jb0.o
/home/twu27/ROMS/trunk/compile_test/Build/conv_2d_mod.mod: conv_2d.o
/home/twu27/ROMS/trunk/compile_test/Build/conv_3d_bry_mod.mod: conv_bry3d.o
/home/twu27/ROMS/trunk/compile_test/Build/conv_3d_mod.mod: conv_3d.o
/home/twu27/ROMS/trunk/compile_test/Build/conv_bry2d_mod.mod: conv_bry2d.o
/home/twu27/ROMS/trunk/compile_test/Build/convolve_mod.mod: convolve.o
/home/twu27/ROMS/trunk/compile_test/Build/cost_grad_mod.mod: cost_grad.o
/home/twu27/ROMS/trunk/compile_test/Build/coupler_mod.mod: coupler.o
/home/twu27/ROMS/trunk/compile_test/Build/dateclock_mod.mod: dateclock.o
/home/twu27/ROMS/trunk/compile_test/Build/def_var_mod.mod: def_var.o
/home/twu27/ROMS/trunk/compile_test/Build/diag_mod.mod: diag.o
/home/twu27/ROMS/trunk/compile_test/Build/distribute_mod.mod: distribute.o
/home/twu27/ROMS/trunk/compile_test/Build/dotproduct_mod.mod: dotproduct.o
/home/twu27/ROMS/trunk/compile_test/Build/erf_mod.mod: erf.o
/home/twu27/ROMS/trunk/compile_test/Build/esmf_roms_mod.mod: esmf_roms.o
/home/twu27/ROMS/trunk/compile_test/Build/exchange_2d_mod.mod: exchange_2d.o
/home/twu27/ROMS/trunk/compile_test/Build/exchange_3d_mod.mod: exchange_3d.o
/home/twu27/ROMS/trunk/compile_test/Build/exchange_4d_mod.mod: exchange_4d.o
/home/twu27/ROMS/trunk/compile_test/Build/extract_obs_mod.mod: extract_obs.o
/home/twu27/ROMS/trunk/compile_test/Build/extract_sta_mod.mod: extract_sta.o
/home/twu27/ROMS/trunk/compile_test/Build/forcing_mod.mod: forcing.o
/home/twu27/ROMS/trunk/compile_test/Build/frc_adjust_mod.mod: frc_adjust.o
/home/twu27/ROMS/trunk/compile_test/Build/frc_weak_mod.mod: frc_weak.o
/home/twu27/ROMS/trunk/compile_test/Build/gls_corstep_mod.mod: gls_corstep.o
/home/twu27/ROMS/trunk/compile_test/Build/gls_prestep_mod.mod: gls_prestep.o
/home/twu27/ROMS/trunk/compile_test/Build/hmixing_mod.mod: hmixing.o
/home/twu27/ROMS/trunk/compile_test/Build/ini_adjust_mod.mod: ini_adjust.o
/home/twu27/ROMS/trunk/compile_test/Build/ini_fields_mod.mod: ini_fields.o
/home/twu27/ROMS/trunk/compile_test/Build/ini_hmixcoef_mod.mod: ini_hmixcoef.o
/home/twu27/ROMS/trunk/compile_test/Build/ini_lanczos_mod.mod: ini_lanczos.o
/home/twu27/ROMS/trunk/compile_test/Build/inner2state_mod.mod: inner2state.o
/home/twu27/ROMS/trunk/compile_test/Build/inp_decode_mod.mod: inp_decode.o
/home/twu27/ROMS/trunk/compile_test/Build/interp_floats_mod.mod: interp_floats.o
/home/twu27/ROMS/trunk/compile_test/Build/interpolate_mod.mod: interpolate.o
/home/twu27/ROMS/trunk/compile_test/Build/lanc_resid_mod.mod: lanc_resid.o
/home/twu27/ROMS/trunk/compile_test/Build/lmd_bkpp_mod.mod: lmd_bkpp.o
/home/twu27/ROMS/trunk/compile_test/Build/lmd_skpp_mod.mod: lmd_skpp.o
/home/twu27/ROMS/trunk/compile_test/Build/lmd_vmix_mod.mod: lmd_vmix.o
/home/twu27/ROMS/trunk/compile_test/Build/metrics_mod.mod: metrics.o
/home/twu27/ROMS/trunk/compile_test/Build/mp_exchange_mod.mod: mp_exchange.o
/home/twu27/ROMS/trunk/compile_test/Build/mpdata_adiff_mod.mod: mpdata_adiff.o
/home/twu27/ROMS/trunk/compile_test/Build/my25_corstep_mod.mod: my25_corstep.o
/home/twu27/ROMS/trunk/compile_test/Build/my25_prestep_mod.mod: my25_prestep.o
/home/twu27/ROMS/trunk/compile_test/Build/nesting_mod.mod: nesting.o
/home/twu27/ROMS/trunk/compile_test/Build/nf_fread2d_bry_mod.mod: nf_fread2d_bry.o
/home/twu27/ROMS/trunk/compile_test/Build/nf_fread2d_mod.mod: nf_fread2d.o
/home/twu27/ROMS/trunk/compile_test/Build/nf_fread3d_bry_mod.mod: nf_fread3d_bry.o
/home/twu27/ROMS/trunk/compile_test/Build/nf_fread3d_mod.mod: nf_fread3d.o
/home/twu27/ROMS/trunk/compile_test/Build/nf_fread4d_mod.mod: nf_fread4d.o
/home/twu27/ROMS/trunk/compile_test/Build/nf_fwrite2d_bry_mod.mod: nf_fwrite2d_bry.o
/home/twu27/ROMS/trunk/compile_test/Build/nf_fwrite2d_mod.mod: nf_fwrite2d.o
/home/twu27/ROMS/trunk/compile_test/Build/nf_fwrite3d_bry_mod.mod: nf_fwrite3d_bry.o
/home/twu27/ROMS/trunk/compile_test/Build/nf_fwrite3d_mod.mod: nf_fwrite3d.o
/home/twu27/ROMS/trunk/compile_test/Build/nf_fwrite4d_mod.mod: nf_fwrite4d.o
/home/twu27/ROMS/trunk/compile_test/Build/normalization_mod.mod: normalization.o
/home/twu27/ROMS/trunk/compile_test/Build/obc_adjust_mod.mod: obc_adjust.o
/home/twu27/ROMS/trunk/compile_test/Build/obc_volcons_mod.mod: obc_volcons.o
/home/twu27/ROMS/trunk/compile_test/Build/obs_k2z_mod.mod: obs_k2z.o
/home/twu27/ROMS/trunk/compile_test/Build/ocean_control_mod.mod: ocean_control.o
/home/twu27/ROMS/trunk/compile_test/Build/ocean_coupler_mod.mod: coupler.o
/home/twu27/ROMS/trunk/compile_test/Build/omega_mod.mod: omega.o
/home/twu27/ROMS/trunk/compile_test/Build/packing_mod.mod: packing.o
/home/twu27/ROMS/trunk/compile_test/Build/posterior_mod.mod: posterior.o
/home/twu27/ROMS/trunk/compile_test/Build/posterior_var_mod.mod: posterior_var.o
/home/twu27/ROMS/trunk/compile_test/Build/pre_step3d_mod.mod: pre_step3d.o
/home/twu27/ROMS/trunk/compile_test/Build/propagator_mod.mod: propagator.o
/home/twu27/ROMS/trunk/compile_test/Build/prsgrd_mod.mod: prsgrd.o
/home/twu27/ROMS/trunk/compile_test/Build/radiation_stress_mod.mod: radiation_stress.o
/home/twu27/ROMS/trunk/compile_test/Build/random_ic_mod.mod: random_ic.o
/home/twu27/ROMS/trunk/compile_test/Build/rho_eos_mod.mod: rho_eos.o
/home/twu27/ROMS/trunk/compile_test/Build/rhs3d_mod.mod: rhs3d.o
/home/twu27/ROMS/trunk/compile_test/Build/roms_export_mod.mod: roms_export.o
/home/twu27/ROMS/trunk/compile_test/Build/roms_import_mod.mod: roms_import.o
/home/twu27/ROMS/trunk/compile_test/Build/round_mod.mod: round.o
/home/twu27/ROMS/trunk/compile_test/Build/sed_bed_mod.mod: sed_bed.o
/home/twu27/ROMS/trunk/compile_test/Build/sed_bedload_mod.mod: sed_bedload.o
/home/twu27/ROMS/trunk/compile_test/Build/sed_fluxes_mod.mod: sed_fluxes.o
/home/twu27/ROMS/trunk/compile_test/Build/sed_settling_mod.mod: sed_settling.o
/home/twu27/ROMS/trunk/compile_test/Build/sed_surface_mod.mod: sed_surface.o
/home/twu27/ROMS/trunk/compile_test/Build/sediment_mod.mod: sediment.o
/home/twu27/ROMS/trunk/compile_test/Build/set_2dfld_mod.mod: set_2dfld.o
/home/twu27/ROMS/trunk/compile_test/Build/set_2dfldr_mod.mod: set_2dfldr.o
/home/twu27/ROMS/trunk/compile_test/Build/set_3dfld_mod.mod: set_3dfld.o
/home/twu27/ROMS/trunk/compile_test/Build/set_3dfldr_mod.mod: set_3dfldr.o
/home/twu27/ROMS/trunk/compile_test/Build/set_avg_mod.mod: set_avg.o
/home/twu27/ROMS/trunk/compile_test/Build/set_depth_mod.mod: set_depth.o
/home/twu27/ROMS/trunk/compile_test/Build/set_masks_mod.mod: set_masks.o
/home/twu27/ROMS/trunk/compile_test/Build/set_massflux_mod.mod: set_massflux.o
/home/twu27/ROMS/trunk/compile_test/Build/set_tides_mod.mod: set_tides.o
/home/twu27/ROMS/trunk/compile_test/Build/set_vbc_mod.mod: set_vbc.o
/home/twu27/ROMS/trunk/compile_test/Build/set_zeta_mod.mod: set_zeta.o
/home/twu27/ROMS/trunk/compile_test/Build/shapiro_mod.mod: shapiro.o
/home/twu27/ROMS/trunk/compile_test/Build/state_addition_mod.mod: state_addition.o
/home/twu27/ROMS/trunk/compile_test/Build/state_copy_mod.mod: state_copy.o
/home/twu27/ROMS/trunk/compile_test/Build/state_dotprod_mod.mod: state_dotprod.o
/home/twu27/ROMS/trunk/compile_test/Build/state_initialize_mod.mod: state_initialize.o
/home/twu27/ROMS/trunk/compile_test/Build/state_product_mod.mod: state_product.o
/home/twu27/ROMS/trunk/compile_test/Build/state_scale_mod.mod: state_scale.o
/home/twu27/ROMS/trunk/compile_test/Build/stats_mod.mod: stats.o
/home/twu27/ROMS/trunk/compile_test/Build/step2d_mod.mod: step2d.o
/home/twu27/ROMS/trunk/compile_test/Build/step3d_t_mod.mod: step3d_t.o
/home/twu27/ROMS/trunk/compile_test/Build/step3d_uv_mod.mod: step3d_uv.o
/home/twu27/ROMS/trunk/compile_test/Build/step_floats_mod.mod: step_floats.o
/home/twu27/ROMS/trunk/compile_test/Build/stiffness_mod.mod: stiffness.o
/home/twu27/ROMS/trunk/compile_test/Build/strings_mod.mod: strings.o
/home/twu27/ROMS/trunk/compile_test/Build/sum_grad_mod.mod: sum_grad.o
/home/twu27/ROMS/trunk/compile_test/Build/sum_imp_mod.mod: sum_imp.o
/home/twu27/ROMS/trunk/compile_test/Build/t3dbc_mod.mod: t3dbc_im.o
/home/twu27/ROMS/trunk/compile_test/Build/t3dmix_mod.mod: t3dmix.o
/home/twu27/ROMS/trunk/compile_test/Build/tkebc_mod.mod: tkebc_im.o
/home/twu27/ROMS/trunk/compile_test/Build/u2dbc_mod.mod: u2dbc_im.o
/home/twu27/ROMS/trunk/compile_test/Build/u3dbc_mod.mod: u3dbc_im.o
/home/twu27/ROMS/trunk/compile_test/Build/uv3dmix_mod.mod: uv3dmix.o
/home/twu27/ROMS/trunk/compile_test/Build/uv_rotate_mod.mod: uv_rotate.o
/home/twu27/ROMS/trunk/compile_test/Build/v2dbc_mod.mod: v2dbc_im.o
/home/twu27/ROMS/trunk/compile_test/Build/v3dbc_mod.mod: v3dbc_im.o
/home/twu27/ROMS/trunk/compile_test/Build/vorticity_mod.mod: vorticity.o
/home/twu27/ROMS/trunk/compile_test/Build/vwalk_floats_mod.mod: vwalk_floats.o
/home/twu27/ROMS/trunk/compile_test/Build/wetdry_mod.mod: wetdry.o
/home/twu27/ROMS/trunk/compile_test/Build/white_noise_mod.mod: white_noise.o
/home/twu27/ROMS/trunk/compile_test/Build/wpoints_mod.mod: wpoints.o
/home/twu27/ROMS/trunk/compile_test/Build/wvelocity_mod.mod: wvelocity.o
/home/twu27/ROMS/trunk/compile_test/Build/zeta_balance_mod.mod: zeta_balance.o
/home/twu27/ROMS/trunk/compile_test/Build/zetabc_mod.mod: zetabc.o
